data_image0
_chemical_formula_structural       Ba2O3Ti2O3
_chemical_formula_sum              "Ba2 O6 Ti2"
_cell_length_a       4.248644314598074
_cell_length_b       5.643402385957992
_cell_length_c       5.639467716217041
_cell_angle_alpha    90.08686201717535
_cell_angle_beta     90.03763001687473
_cell_angle_gamma    90.06670613399511

_space_group_name_H-M_alt    "P 1"
_space_group_IT_number       1

loop_
  _space_group_symop_operation_xyz
  'x, y, z'

loop_
  _atom_site_type_symbol
  _atom_site_label
  _atom_site_symmetry_multiplicity
  _atom_site_fract_x
  _atom_site_fract_y
  _atom_site_fract_z
  _atom_site_occupancy
  Ba  Ba1       1.0  0.27919779547513673  0.9178727429890654  0.7286840355442024  1.0000
  Ba  Ba2       1.0  0.27918862234495734  0.41805447150328123  0.22877361514014927  1.0000
  O   O1        1.0  0.7494648767387627  0.6681419441249605  0.9784893034236627  1.0000
  O   O2        1.0  0.7501541662521434  0.1683404234496386  0.9781742092180958  1.0000
  O   O3        1.0  0.22691457457306727  0.4182097032724458  0.7285233572185174  1.0000
  Ti  Ti1       1.0  0.7986052013989059  0.41748608450906394  0.7290877766735403  1.0000
  Ti  Ti2       1.0  0.7985576317956935  0.9175753191704697  0.22909185920139483  1.0000
  O   O4        1.0  0.7496006385440065  0.16840930670204082  0.47834133867772044  1.0000
  O   O5        1.0  0.22688621395887737  0.9181872637660539  0.2287074798247245  1.0000
  O   O6        1.0  0.7499104974541765  0.6686143027474477  0.4783383586614235  1.0000
