data_image0
_chemical_formula_structural       OBa2Ti3BaOBaO7
_chemical_formula_sum              "O9 Ba4 Ti3"
_cell_length_a       4.008223234789565
_cell_length_b       7.408960254675487
_cell_length_c       9.590225219726562
_cell_angle_alpha    76.41872438809521
_cell_angle_beta     77.92273357525428
_cell_angle_gamma    74.33714882770605

_space_group_name_H-M_alt    "P 1"
_space_group_IT_number       1

loop_
  _space_group_symop_operation_xyz
  'x, y, z'

loop_
  _atom_site_type_symbol
  _atom_site_label
  _atom_site_symmetry_multiplicity
  _atom_site_fract_x
  _atom_site_fract_y
  _atom_site_fract_z
  _atom_site_occupancy
  O   O1        1.0  0.1340322007871369  0.3670538922658432  0.9970578879247389  1.0000
  Ba  Ba1       1.0  0.2643954409838703  0.6907350095674188  0.41230682735864366  1.0000
  Ba  Ba2       1.0  0.7587574801143632  0.07665499507789911  0.0377473643322531  1.0000
  Ti  Ti1       1.0  0.5233834995400632  0.19567846108677697  0.3897192287341906  1.0000
  Ti  Ti2       1.0  0.25716895879668167  0.3536465352890557  0.7643224368621532  1.0000
  Ti  Ti3       1.0  0.01258814617895479  0.41783790757965267  0.1892163640843791  1.0000
  Ba  Ba3       1.0  0.9767786791315949  0.021704354319707547  0.6566201810764011  1.0000
  O   O2        1.0  0.14477814213382145  0.6227415614910663  0.7202477235978172  1.0000
  Ba  Ba4       1.0  0.5377855164157809  0.6392334177321785  0.917559348530565  1.0000
  O   O3        1.0  0.38502560197604835  0.29668697162938634  0.5655147590406115  1.0000
  O   O4        1.0  0.8880265834045104  0.6783379781427276  0.17822898174999605  1.0000
  O   O5        1.0  0.3746408199194066  0.024908651130605627  0.857562163452562  1.0000
  O   O6        1.0  0.6251046299239281  0.9303235175031835  0.45136817089532727  1.0000
  O   O7        1.0  0.521287067156875  0.3867960368292237  0.20288410043547256  1.0000
  O   O8        1.0  0.027274170239147116  0.21218385469999407  0.36551328399385963  1.0000
  O   O9        1.0  0.7591426421090447  0.32876884582039634  0.7851459054970555  1.0000
