data_image0
_chemical_formula_structural       Ti2OBaTiBa2O2BaO8
_chemical_formula_sum              "Ti3 O11 Ba4"
_cell_length_a       4.05518776723331
_cell_length_b       4.0662745729209675
_cell_length_c       16.21257972717285
_cell_angle_alpha    96.44206654887857
_cell_angle_beta     97.0136436024175
_cell_angle_gamma    91.02013898953535

_space_group_name_H-M_alt    "P 1"
_space_group_IT_number       1

loop_
  _space_group_symop_operation_xyz
  'x, y, z'

loop_
  _atom_site_type_symbol
  _atom_site_label
  _atom_site_symmetry_multiplicity
  _atom_site_fract_x
  _atom_site_fract_y
  _atom_site_fract_z
  _atom_site_occupancy
  Ti  Ti1       1.0  0.2723537470507328  0.8244422767462798  0.6789731254833771  1.0000
  Ti  Ti2       1.0  0.5229870424241027  0.05957251892868423  0.18954319479812354  1.0000
  O   O1        1.0  0.5562227669640157  0.1360741888027131  0.30452578032375194  1.0000
  Ba  Ba1       1.0  0.9439961838029203  0.5112282642594832  0.05662476277904417  1.0000
  Ti  Ti3       1.0  0.3960417488911027  0.9401734399901953  0.9328609069038415  1.0000
  Ba  Ba2       1.0  0.6895859341338623  0.2983301994094563  0.543015965064977  1.0000
  Ba  Ba3       1.0  0.8176423583153447  0.3952242390621777  0.801898221105257  1.0000
  O   O2        1.0  0.7277706562860986  0.852014238888783  0.6708087034859197  1.0000
  O   O3        1.0  0.2993760934012672  0.9083548693706981  0.7955439973858355  1.0000
  Ba  Ba4       1.0  0.07194026963109153  0.6279679454453657  0.3100765431732872  1.0000
  O   O4        1.0  0.3634876039165302  0.47621831312176827  0.9252404243765376  1.0000
  O   O5        1.0  0.17194691413987814  0.5901327847769786  0.471222230511099  1.0000
  O   O6        1.0  0.8548418126746885  0.9667296137144172  0.925301633653977  1.0000
  O   O7        1.0  0.2348930954943239  0.36201597569736715  0.6672609254523968  1.0000
  O   O8        1.0  0.9863652372958899  0.08489190822464066  0.18186513365100887  1.0000
  O   O9        1.0  0.4932830890416501  0.590940582097953  0.18199535934449854  1.0000
  O   O10       1.0  0.16150433291680433  0.8450315135836856  0.5442930550460824  1.0000
  O   O11       1.0  0.426529999385474  0.02198220253804051  0.04927013881323282  1.0000
