data_image0
_chemical_formula_structural       Ba2O2BaOTiO3
_chemical_formula_sum              "Ba3 O6 Ti1"
_cell_length_a       6.061810344126022
_cell_length_b       6.0634791494745075
_cell_length_c       6.5967936515808105
_cell_angle_alpha    89.91674248854417
_cell_angle_beta     90.02951575477925
_cell_angle_gamma    119.90920350143625

_space_group_name_H-M_alt    "P 1"
_space_group_IT_number       1

loop_
  _space_group_symop_operation_xyz
  'x, y, z'

loop_
  _atom_site_type_symbol
  _atom_site_label
  _atom_site_symmetry_multiplicity
  _atom_site_fract_x
  _atom_site_fract_y
  _atom_site_fract_z
  _atom_site_occupancy
  Ba  Ba1       1.0  0.47090847352098675  0.7104581660446627  0.19784665879702756  1.0000
  Ba  Ba2       1.0  0.13760766724134046  0.04441003482933996  0.9979164761694438  1.0000
  O   O1        1.0  0.9567297646548155  0.6825316671335918  0.2738735847166218  1.0000
  O   O2        1.0  0.651751330902852  0.07231975848835479  0.9218635599788595  1.0000
  Ba  Ba3       1.0  0.8042984257131945  0.3774483261575001  0.5978444547242525  1.0000
  O   O3        1.0  0.10958805090748834  0.5292038854438026  0.9215471720930845  1.0000
  Ti  Ti1       1.0  0.8043468686485712  0.3774462168269158  0.09781776605898165  1.0000
  O   O4        1.0  0.6520248500374678  0.5305416383746139  0.9213698378189891  1.0000
  O   O5        1.0  0.9571808510448925  0.22482150901629896  0.27446584128952933  1.0000
  O   O6        1.0  0.4991253977383626  0.22507084728671298  0.2741346736628244  1.0000
