data_image0
_chemical_formula_structural       Ba2OBa2OBaO2BaTiBa
_chemical_formula_sum              "Ba7 O4 Ti1"
_cell_length_a       8.062561078493006
_cell_length_b       8.060084664437873
_cell_length_c       8.466649055480959
_cell_angle_alpha    61.55081696234141
_cell_angle_beta     61.48005506912758
_cell_angle_gamma    59.84082606469905

_space_group_name_H-M_alt    "P 1"
_space_group_IT_number       1

loop_
  _space_group_symop_operation_xyz
  'x, y, z'

loop_
  _atom_site_type_symbol
  _atom_site_label
  _atom_site_symmetry_multiplicity
  _atom_site_fract_x
  _atom_site_fract_y
  _atom_site_fract_z
  _atom_site_occupancy
  Ba  Ba1       1.0  0.51692258968437  0.8585074804811268  0.6751366118888148  1.0000
  Ba  Ba2       1.0  0.039142248506569485  0.3694874531911774  0.11815930394527653  1.0000
  O   O1        1.0  0.27759325505341237  0.1101810244285191  0.9009726634519294  1.0000
  Ba  Ba3       1.0  0.03309095943419388  0.866721178342918  0.6361172022654138  1.0000
  Ba  Ba4       1.0  0.02669956418362446  0.34954604930015903  0.6745008441974553  1.0000
  O   O2        1.0  0.7166254344768116  0.169302072549024  0.9633535982163852  1.0000
  Ba  Ba5       1.0  0.5162125404114252  0.3490281878482265  0.6742408602388656  1.0000
  O   O3        1.0  0.7146301879196896  0.5469551942744165  0.9665020619761787  1.0000
  O   O4        1.0  0.3370344781994869  0.5482854938516443  0.9645865099858267  1.0000
  Ba  Ba6       1.0  0.5365184264643483  0.8720394049013525  0.11830510976977089  1.0000
  Ti  Ti1       1.0  0.5617821176476271  0.3935365774950791  0.04741276104305077  1.0000
  Ba  Ba7       1.0  0.03932579687920539  0.8722538327848655  0.11842279028424757  1.0000
