data_image0
_chemical_formula_structural       Ba2Ti2O3Ba2O3
_chemical_formula_sum              "Ba4 Ti2 O6"
_cell_length_a       3.6497746217563503
_cell_length_b       6.310175946771866
_cell_length_c       9.72955322265625
_cell_angle_alpha    90.00729031628623
_cell_angle_beta     89.97643152234556
_cell_angle_gamma    89.96548956050226

_space_group_name_H-M_alt    "P 1"
_space_group_IT_number       1

loop_
  _space_group_symop_operation_xyz
  'x, y, z'

loop_
  _atom_site_type_symbol
  _atom_site_label
  _atom_site_symmetry_multiplicity
  _atom_site_fract_x
  _atom_site_fract_y
  _atom_site_fract_z
  _atom_site_occupancy
  Ba  Ba1       1.0  0.9087590918473285  0.5620286799295063  0.9203171264813264  1.0000
  Ba  Ba2       1.0  0.9093792798032002  0.062064618500681  0.628423921733487  1.0000
  Ti  Ti1       1.0  0.4093653459931531  0.562013605369922  0.6364962445656915  1.0000
  Ti  Ti2       1.0  0.907748907562738  0.062043509474863034  0.27304957593121937  1.0000
  O   O1        1.0  0.40900042352986615  0.7922973450323891  0.7695151151689379  1.0000
  O   O2        1.0  0.908117283518364  0.8317390938397008  0.1400239820486124  1.0000
  O   O3        1.0  0.9093954286383581  0.5619283860214975  0.5798612830312849  1.0000
  Ba  Ba3       1.0  0.407736478454208  0.5620253845284906  0.2811244780315149  1.0000
  Ba  Ba4       1.0  0.4083548242636769  0.06203273954170248  0.9892190904401716  1.0000
  O   O4        1.0  0.40915929887461056  0.3317243831313765  0.7695189231559321  1.0000
  O   O5        1.0  0.9079584670545697  0.2923365367521058  0.1400402822736437  1.0000
  O   O6        1.0  0.40772103153406714  0.06202951914567485  0.3296766483921547  1.0000
