data_image0
_chemical_formula_structural       Ba3TiO2
_chemical_formula_sum              "Ba3 Ti1 O2"
_cell_length_a       4.081548144241446
_cell_length_b       4.086797228346612
_cell_length_c       11.330409049987793
_cell_angle_alpha    89.97258612617655
_cell_angle_beta     89.92238423339111
_cell_angle_gamma    90.00709907093868

_space_group_name_H-M_alt    "P 1"
_space_group_IT_number       1

loop_
  _space_group_symop_operation_xyz
  'x, y, z'

loop_
  _atom_site_type_symbol
  _atom_site_label
  _atom_site_symmetry_multiplicity
  _atom_site_fract_x
  _atom_site_fract_y
  _atom_site_fract_z
  _atom_site_occupancy
  Ba  Ba1       1.0  0.8528992069309493  0.43027546289540974  0.1699742684590446  1.0000
  Ba  Ba2       1.0  0.3535776768759529  0.9303359845760915  0.48516852560296186  1.0000
  Ba  Ba3       1.0  0.8537030791024256  0.4305285234857326  0.8003301403718642  1.0000
  Ti  Ti1       1.0  0.3532759146926376  0.93038910975089  0.9851205895050258  1.0000
  O   O1        1.0  0.8532749694418957  0.9304150351399472  0.9851531063020458  1.0000
  O   O2        1.0  0.35328102810579404  0.4303832205156448  0.9851456331001263  1.0000
