data_image0
_chemical_formula_structural       TiBaO3
_chemical_formula_sum              "Ti1 Ba1 O3"
_cell_length_a       3.9664165646378966
_cell_length_b       4.132478157974427
_cell_length_c       4.138275146484375
_cell_angle_alpha    89.40721037071846
_cell_angle_beta     89.97288665352039
_cell_angle_gamma    89.99434710785539

_space_group_name_H-M_alt    "P 1"
_space_group_IT_number       1

loop_
  _space_group_symop_operation_xyz
  'x, y, z'

loop_
  _atom_site_type_symbol
  _atom_site_label
  _atom_site_symmetry_multiplicity
  _atom_site_fract_x
  _atom_site_fract_y
  _atom_site_fract_z
  _atom_site_occupancy
  Ti  Ti1       1.0  0.34019755693470705  0.23061377510514672  0.9973924809516107  1.0000
  Ba  Ba1       1.0  0.8401481552701402  0.7477179304876288  0.5147076718310198  1.0000
  O   O1        1.0  0.3401874929087633  0.2643086936930432  0.5513214363221336  1.0000
  O   O2        1.0  0.8402278175755219  0.27303311193444857  0.04045249749575755  1.0000
  O   O3        1.0  0.34033419976504126  0.7835886410008035  0.03149820671229287  1.0000
