data_image0
_chemical_formula_structural       TiOBaTi
_chemical_formula_sum              "Ti2 O1 Ba1"
_cell_length_a       3.485245610227755
_cell_length_b       3.9774741437379313
_cell_length_c       6.8178181648254395
_cell_angle_alpha    106.94164450780512
_cell_angle_beta     104.72061732547438
_cell_angle_gamma    90.03488409145291

_space_group_name_H-M_alt    "P 1"
_space_group_IT_number       1

loop_
  _space_group_symop_operation_xyz
  'x, y, z'

loop_
  _atom_site_type_symbol
  _atom_site_label
  _atom_site_symmetry_multiplicity
  _atom_site_fract_x
  _atom_site_fract_y
  _atom_site_fract_z
  _atom_site_occupancy
  Ti  Ti1       1.0  0.10055272663406596  0.24677053374923175  0.4503999865039312  1.0000
  O   O1        1.0  0.701087767576125  0.347644953573998  0.6521669880392394  1.0000
  Ba  Ba1       1.0  0.37900933959661315  0.5252714004105953  0.007819837165442697  1.0000
  Ti  Ti2       1.0  0.6759060360813597  0.8224246061724987  0.6016766456446468  1.0000
