data_image0
_chemical_formula_structural       BaO2TiBa2OBaO3TiO2
_chemical_formula_sum              "Ba4 O8 Ti2"
_cell_length_a       5.963666469997951
_cell_length_b       7.282227918139658
_cell_length_c       7.1282291412353525
_cell_angle_alpha    73.83902383508409
_cell_angle_beta     65.4680783407672
_cell_angle_gamma    66.31436684812957

_space_group_name_H-M_alt    "P 1"
_space_group_IT_number       1

loop_
  _space_group_symop_operation_xyz
  'x, y, z'

loop_
  _atom_site_type_symbol
  _atom_site_label
  _atom_site_symmetry_multiplicity
  _atom_site_fract_x
  _atom_site_fract_y
  _atom_site_fract_z
  _atom_site_occupancy
  Ba  Ba1       1.0  0.503441196497732  0.36687702061920635  0.20784445894611364  1.0000
  O   O1        1.0  0.6802412508867531  0.9577130992512568  0.2735931722790924  1.0000
  O   O2        1.0  0.007602509327245495  0.5824746918663786  0.4725058031076171  1.0000
  Ti  Ti1       1.0  0.8316059027690482  0.92456075885784  0.994923304014808  1.0000
  Ba  Ba2       1.0  0.18526177134928987  0.4093888024598362  0.8021328455525857  1.0000
  Ba  Ba3       1.0  0.20794005516736322  0.908759157311926  0.2598691175990603  1.0000
  O   O3        1.0  0.016047409464880685  0.3071517419302763  0.24039574888990384  1.0000
  Ba  Ba4       1.0  0.5238472291195002  0.8263724981393196  0.7101767778096756  1.0000
  O   O4        1.0  0.7226757530685368  0.6733409628146542  0.028244721699558172  1.0000
  O   O5        1.0  0.5670529981332874  0.08409034257845384  0.89080325482853  1.0000
  O   O6        1.0  0.1593234366448419  0.672261503961976  0.03205191640723142  1.0000
  Ti  Ti2       1.0  0.8630233802239252  0.5656303935540965  0.2941602743168242  1.0000
  O   O7        1.0  0.522664460874882  0.5826464002801051  0.4706569174636745  1.0000
  O   O8        1.0  0.0486845264908751  0.0798142756334837  0.8809771399190044  1.0000
