data_image0
_chemical_formula_structural       BaTiO2
_chemical_formula_sum              "Ba1 Ti1 O2"
_cell_length_a       3.2985871326331986
_cell_length_b       3.300208938941675
_cell_length_c       6.3312349319458
_cell_angle_alpha    74.97045561911457
_cell_angle_beta     74.95362699247168
_cell_angle_gamma    60.166946052106084

_space_group_name_H-M_alt    "P 1"
_space_group_IT_number       1

loop_
  _space_group_symop_operation_xyz
  'x, y, z'

loop_
  _atom_site_type_symbol
  _atom_site_label
  _atom_site_symmetry_multiplicity
  _atom_site_fract_x
  _atom_site_fract_y
  _atom_site_fract_z
  _atom_site_occupancy
  Ba  Ba1       1.0  0.5891899433886049  0.5266683855734219  0.4546728698998967  1.0000
  Ti  Ti1       1.0  0.08915717570149793  0.02670907609944192  0.9544996346923  1.0000
  O   O1        1.0  0.3674759869016081  0.3050103140923953  0.1204956445412458  1.0000
  O   O2        1.0  0.8109028381912404  0.7484650274123523  0.7887722737623869  1.0000
