data_image0
_chemical_formula_structural       BaTiBaO2TiO2
_chemical_formula_sum              "Ba2 Ti2 O4"
_cell_length_a       5.4623394699730365
_cell_length_b       5.505445971382334
_cell_length_c       6.634315490722656
_cell_angle_alpha    103.82056945266538
_cell_angle_beta     102.80636817363266
_cell_angle_gamma    114.64084246190721

_space_group_name_H-M_alt    "P 1"
_space_group_IT_number       1

loop_
  _space_group_symop_operation_xyz
  'x, y, z'

loop_
  _atom_site_type_symbol
  _atom_site_label
  _atom_site_symmetry_multiplicity
  _atom_site_fract_x
  _atom_site_fract_y
  _atom_site_fract_z
  _atom_site_occupancy
  Ba  Ba1       1.0  0.6095190030219929  0.7713222807483182  0.9780121853582262  1.0000
  Ti  Ti1       1.0  0.07463839935727279  0.5692351542253065  0.3023000980585028  1.0000
  Ba  Ba2       1.0  0.9340975141972128  0.10021586566140833  0.6294202637187661  1.0000
  O   O1        1.0  0.16257743329878857  0.3521339299301626  0.07942261379271061  1.0000
  O   O2        1.0  0.7461339639124609  0.23324014503289528  0.30183014007164516  1.0000
  Ti  Ti2       1.0  0.42937162816107205  0.30468928840437265  0.3036236151802056  1.0000
  O   O3        1.0  0.1516934813477435  0.9344911024918517  0.30045918501907803  1.0000
  O   O4        1.0  0.3713327009558848  0.5664282170563572  0.5266325276451933  1.0000
