data_image0
_chemical_formula_structural       BaTiO2
_chemical_formula_sum              "Ba1 Ti1 O2"
_cell_length_a       3.2744808386239663
_cell_length_b       3.27138920925539
_cell_length_c       6.5330305099487305
_cell_angle_alpha    75.4303479789396
_cell_angle_beta     75.44786680188868
_cell_angle_gamma    59.87937151506261

_space_group_name_H-M_alt    "P 1"
_space_group_IT_number       1

loop_
  _space_group_symop_operation_xyz
  'x, y, z'

loop_
  _atom_site_type_symbol
  _atom_site_label
  _atom_site_symmetry_multiplicity
  _atom_site_fract_x
  _atom_site_fract_y
  _atom_site_fract_z
  _atom_site_occupancy
  Ba  Ba1       1.0  0.8310592872064181  0.06580242000891577  0.26809415454214025  1.0000
  Ti  Ti1       1.0  0.001305280160085801  0.23668519796253348  0.7580029959220412  1.0000
  O   O1        1.0  0.38847759890718064  0.6237441580404077  0.5963157011801219  1.0000
  O   O2        1.0  0.6125805569381686  0.8479256858825007  0.9241789984481521  1.0000
