data_image0
_chemical_formula_structural       Ba2TiO5BaO2Ti
_chemical_formula_sum              "Ba3 Ti2 O7"
_cell_length_a       4.056529523328497
_cell_length_b       4.065646525483436
_cell_length_c       11.085942268371582
_cell_angle_alpha    100.55709163933606
_cell_angle_beta     100.54401187555166
_cell_angle_gamma    90.2597683582659

_space_group_name_H-M_alt    "P 1"
_space_group_IT_number       1

loop_
  _space_group_symop_operation_xyz
  'x, y, z'

loop_
  _atom_site_type_symbol
  _atom_site_label
  _atom_site_symmetry_multiplicity
  _atom_site_fract_x
  _atom_site_fract_y
  _atom_site_fract_z
  _atom_site_occupancy
  Ba  Ba1       1.0  0.19686635356459944  0.07718325794372917  0.8494151399450586  1.0000
  Ba  Ba2       1.0  0.018430479821037744  0.8883681885322985  0.4827591644239912  1.0000
  Ti  Ti1       1.0  0.6202990193534541  0.4630612937379344  0.6593934351683868  1.0000
  O   O1        1.0  0.5974829260472663  0.996124130943875  0.6601427109306935  1.0000
  O   O2        1.0  0.30353595870607986  0.666548966242783  0.038385679218239245  1.0000
  O   O3        1.0  0.7953000629707372  0.15820722379655253  0.038523237524899646  1.0000
  O   O4        1.0  0.08935169458504788  0.48747732539642363  0.6603257700444313  1.0000
  O   O5        1.0  0.8889780284320618  0.7573407304710121  0.2217829211160214  1.0000
  Ba  Ba3       1.0  0.37490428708691725  0.2652477164255628  0.21548349091786095  1.0000
  O   O6        1.0  0.6965312662657288  0.5772915194093658  0.8494520068232568  1.0000
  O   O7        1.0  0.5045507641337441  0.39692154420371456  0.47683371752596193  1.0000
  Ti  Ti2       1.0  0.77349632670854  0.6908017138334797  0.039106925010872304  1.0000
