data_image0
_chemical_formula_structural       TiBa2TiBaO3TiBaTiO8
_chemical_formula_sum              "Ti4 Ba4 O11"
_cell_length_a       5.75765629094161
_cell_length_b       5.756851003284033
_cell_length_c       9.885289192199707
_cell_angle_alpha    90.57530252590382
_cell_angle_beta     105.9852187683523
_cell_angle_gamma    120.63744822821702

_space_group_name_H-M_alt    "P 1"
_space_group_IT_number       1

loop_
  _space_group_symop_operation_xyz
  'x, y, z'

loop_
  _atom_site_type_symbol
  _atom_site_label
  _atom_site_symmetry_multiplicity
  _atom_site_fract_x
  _atom_site_fract_y
  _atom_site_fract_z
  _atom_site_occupancy
  Ti  Ti1       1.0  0.5692658118911044  0.7890209413120598  0.4250142234732474  1.0000
  Ba  Ba1       1.0  0.31340902507039115  0.16569849841566844  0.5459000024697767  1.0000
  Ba  Ba2       1.0  0.31352923624143314  0.6656486427262941  0.0459594314039945  1.0000
  Ti  Ti2       1.0  0.09367710496455628  0.026133006612523928  0.18645322566839945  1.0000
  Ba  Ba3       1.0  0.8076490738605635  0.9151641934225875  0.7897342128070545  1.0000
  O   O1        1.0  0.3168979938280047  0.9132853281330658  0.29687505519480767  1.0000
  O   O2        1.0  0.8134839264697737  0.665774842293686  0.04590193326041688  1.0000
  O   O3        1.0  0.313431761229839  0.6657334676236193  0.5459258881608483  1.0000
  Ti  Ti3       1.0  0.533264183371607  0.305213645254595  0.9053789084819395  1.0000
  Ba  Ba4       1.0  0.8192726264157123  0.41621054563658516  0.30213977204640413  1.0000
  Ti  Ti4       1.0  0.05764797609211718  0.5423780053560215  0.6668744047941079  1.0000
  O   O4        1.0  0.3100418953103271  0.41802304268765955  0.7949210195914506  1.0000
  O   O5        1.0  0.8134582718402311  0.6657340333622882  0.5459717473361738  1.0000
  O   O6        1.0  0.32548205143373854  0.9230641887502811  0.8040927148780707  1.0000
  O   O7        1.0  0.31352281277849336  0.16576794991906454  0.04594616292297219  1.0000
  O   O8        1.0  0.8129593624731967  0.9199153272348003  0.28778852430429963  1.0000
  O   O9        1.0  0.8134198058271331  0.16572658088394904  0.5459156852927216  1.0000
  O   O10       1.0  0.3014644092604306  0.40827040963303235  0.28782572805774737  1.0000
  O   O11       1.0  0.814028569060537  0.4113994409838499  0.8041025108697287  1.0000
