data_image0
_chemical_formula_structural       TiBaO2
_chemical_formula_sum              "Ti1 Ba1 O2"
_cell_length_a       3.287143061919089
_cell_length_b       3.283604998072416
_cell_length_c       6.509535789489746
_cell_angle_alpha    75.29079339939248
_cell_angle_beta     75.30075785947767
_cell_angle_gamma    59.77352836777217

_space_group_name_H-M_alt    "P 1"
_space_group_IT_number       1

loop_
  _space_group_symop_operation_xyz
  'x, y, z'

loop_
  _atom_site_type_symbol
  _atom_site_label
  _atom_site_symmetry_multiplicity
  _atom_site_fract_x
  _atom_site_fract_y
  _atom_site_fract_z
  _atom_site_occupancy
  Ti  Ti1       1.0  0.5356928434633191  0.7791713842720117  0.9712866258290509  1.0000
  Ba  Ba1       1.0  0.3651737217488029  0.608534052378542  0.48193531691664776  1.0000
  O   O1        1.0  0.9227653831269662  0.16622601945868776  0.8098694315779447  1.0000
  O   O2        1.0  0.14686543301995125  0.39044188917870104  0.13781314231043593  1.0000
