data_image0
_chemical_formula_structural       OBa2O2TiBaTiO4
_chemical_formula_sum              "O7 Ba3 Ti2"
_cell_length_a       3.9969479739000637
_cell_length_b       4.00277534542751
_cell_length_c       13.166258811950684
_cell_angle_alpha    89.9841496339136
_cell_angle_beta     89.76511230355901
_cell_angle_gamma    89.83034743633648

_space_group_name_H-M_alt    "P 1"
_space_group_IT_number       1

loop_
  _space_group_symop_operation_xyz
  'x, y, z'

loop_
  _atom_site_type_symbol
  _atom_site_label
  _atom_site_symmetry_multiplicity
  _atom_site_fract_x
  _atom_site_fract_y
  _atom_site_fract_z
  _atom_site_occupancy
  O   O1        1.0  0.44340518946758073  0.2887586655052888  0.12308225360357919  1.0000
  Ba  Ba1       1.0  0.4447197803220518  0.7891616036347485  0.9755770851681356  1.0000
  Ba  Ba2       1.0  0.4414132760530271  0.7893423452874245  0.2806442712944414  1.0000
  O   O2        1.0  0.9415069341632155  0.28896802018322393  0.2806916390051496  1.0000
  O   O3        1.0  0.937755535756804  0.28889061017411544  0.5857386019256535  1.0000
  Ti  Ti1       1.0  0.9399464116102955  0.29036352899932966  0.4386818789004428  1.0000
  Ba  Ba3       1.0  0.4379662266595503  0.7897753829138426  0.585922004115148  1.0000
  Ti  Ti2       1.0  0.9426046007983054  0.2893275468002591  0.12273939254760334  1.0000
  O   O4        1.0  0.4396414888391256  0.2891490640375374  0.43833741100251933  1.0000
  O   O5        1.0  0.9431605520192649  0.7887378427092876  0.12313605965036103  1.0000
  O   O6        1.0  0.9451623701312314  0.2889341185373224  0.9756578245768657  1.0000
  O   O7        1.0  0.9397455737084575  0.7887439584038984  0.4383322412865182  1.0000
