data_image0
_chemical_formula_structural       Ba2TiO4BaOBaOTi
_chemical_formula_sum              "Ba4 Ti2 O6"
_cell_length_a       5.800393227507408
_cell_length_b       6.222941275907761
_cell_length_c       6.228942394256591
_cell_angle_alpha    68.73459008676501
_cell_angle_beta     89.86402028270099
_cell_angle_gamma    89.8273626456461

_space_group_name_H-M_alt    "P 1"
_space_group_IT_number       1

loop_
  _space_group_symop_operation_xyz
  'x, y, z'

loop_
  _atom_site_type_symbol
  _atom_site_label
  _atom_site_symmetry_multiplicity
  _atom_site_fract_x
  _atom_site_fract_y
  _atom_site_fract_z
  _atom_site_occupancy
  Ba  Ba1       1.0  0.40648255563681907  0.6841091042213816  0.2418351365114238  1.0000
  Ba  Ba2       1.0  0.9079750376902763  0.32955074328216755  0.2669402812440572  1.0000
  Ti  Ti1       1.0  0.90755406716899  0.5907454443008326  0.6707234305099781  1.0000
  O   O1        1.0  0.4086976012781179  0.15591805566723205  0.10545922819689839  1.0000
  O   O2        1.0  0.15791275438900218  0.3721360619672668  0.620010002995522  1.0000
  O   O3        1.0  0.15728538195001185  0.6417551321849375  0.8887491738615501  1.0000
  O   O4        1.0  0.6578038971812127  0.37270519061241975  0.6192843491630184  1.0000
  Ba  Ba3       1.0  0.40777109767351566  0.019386466618743766  0.5773120483561837  1.0000
  O   O5        1.0  0.6573537258672912  0.6414942601578378  0.8890780646847293  1.0000
  Ba  Ba4       1.0  0.9065187494260304  0.9947289010229311  0.9310865513723781  1.0000
  O   O6        1.0  0.9091273249288936  0.8568387747904965  0.40190739666830705  1.0000
  Ti  Ti2       1.0  0.40766485826721677  0.4232840510860477  0.8379077487960795  1.0000
