data_image0
_chemical_formula_structural       TiBa2O2TiO4
_chemical_formula_sum              "Ti2 Ba2 O6"
_cell_length_a       4.246313931608662
_cell_length_b       5.628620714122079
_cell_length_c       5.630949020385742
_cell_angle_alpha    90.17990285851515
_cell_angle_beta     90.08033918074896
_cell_angle_gamma    90.0980566977218

_space_group_name_H-M_alt    "P 1"
_space_group_IT_number       1

loop_
  _space_group_symop_operation_xyz
  'x, y, z'

loop_
  _atom_site_type_symbol
  _atom_site_label
  _atom_site_symmetry_multiplicity
  _atom_site_fract_x
  _atom_site_fract_y
  _atom_site_fract_z
  _atom_site_occupancy
  Ti  Ti1       1.0  0.3366983219221637  0.0694060500401238  0.6743223446899278  1.0000
  Ba  Ba1       1.0  0.8560096678645005  0.0694583930338664  0.17435228877540435  1.0000
  Ba  Ba2       1.0  0.8559876350268993  0.5694935252398963  0.6743949541865367  1.0000
  O   O1        1.0  0.3863403387654722  0.31979868333035716  0.9244372664126919  1.0000
  O   O2        1.0  0.9082342999011215  0.0693604641074525  0.6743481870353389  1.0000
  Ti  Ti2       1.0  0.3368006041423479  0.5694142736906509  0.17433950211502994  1.0000
  O   O3        1.0  0.3863340653776894  0.8194882025498302  0.42461056147974935  1.0000
  O   O4        1.0  0.3852741989059434  0.319389280782223  0.42430107824698254  1.0000
  O   O5        1.0  0.3853305043168792  0.8197841296992112  0.9245507180559572  1.0000
  O   O6        1.0  0.9083157802446384  0.5694567436448051  0.1742929570674726  1.0000
