data_image0
_chemical_formula_structural       OTiBaO3
_chemical_formula_sum              "O4 Ti1 Ba1"
_cell_length_a       3.8263122158458978
_cell_length_b       5.156461204583293
_cell_length_c       5.186100959777832
_cell_angle_alpha    86.579635112685
_cell_angle_beta     89.9226301246131
_cell_angle_gamma    89.96204031252022

_space_group_name_H-M_alt    "P 1"
_space_group_IT_number       1

loop_
  _space_group_symop_operation_xyz
  'x, y, z'

loop_
  _atom_site_type_symbol
  _atom_site_label
  _atom_site_symmetry_multiplicity
  _atom_site_fract_x
  _atom_site_fract_y
  _atom_site_fract_z
  _atom_site_occupancy
  O   O1        1.0  0.26273839564030355  0.8824609194818037  0.8151952761650401  1.0000
  Ti  Ti1       1.0  0.7628853195949638  0.7805313472357357  0.7158680454930353  1.0000
  Ba  Ba1       1.0  0.2630087231674377  0.2791410518806315  0.21519641344841306  1.0000
  O   O2        1.0  0.7631212379143756  0.5216114758631992  0.971441574093776  1.0000
  O   O3        1.0  0.763026263937444  0.035592142881853625  0.45625306221119616  1.0000
  O   O4        1.0  0.26325633974579377  0.6800628864154856  0.6160436700098526  1.0000
