data_image0
_chemical_formula_structural       OTiBaO2BaO2BaTiO2
_chemical_formula_sum              "O7 Ti2 Ba3"
_cell_length_a       4.069330105576509
_cell_length_b       4.071434213967846
_cell_length_c       11.091154098510742
_cell_angle_alpha    100.57312912903467
_cell_angle_beta     100.56340231547173
_cell_angle_gamma    89.83287442356695

_space_group_name_H-M_alt    "P 1"
_space_group_IT_number       1

loop_
  _space_group_symop_operation_xyz
  'x, y, z'

loop_
  _atom_site_type_symbol
  _atom_site_label
  _atom_site_symmetry_multiplicity
  _atom_site_fract_x
  _atom_site_fract_y
  _atom_site_fract_z
  _atom_site_occupancy
  O   O1        1.0  0.02608904758905012  0.7825625055324886  0.17088929536118247  1.0000
  Ti  Ti1       1.0  0.9627502708117099  0.719562602561289  0.9882700438887603  1.0000
  Ba  Ba1       1.0  0.17131917106381195  0.9281725268224145  0.4326683583526071  1.0000
  O   O2        1.0  0.6544934339343775  0.41110836866706424  0.4267324816212118  1.0000
  O   O3        1.0  0.23797485283578115  0.5053580322777406  0.6099951905890003  1.0000
  Ba  Ba2       1.0  0.35497869547791205  0.11173701414508562  0.7987905657399654  1.0000
  O   O4        1.0  0.8382321046873704  0.5947586619131622  0.798790129318989  1.0000
  O   O5        1.0  0.7486613392571237  0.9944506507035394  0.6099820518208504  1.0000
  Ba  Ba3       1.0  0.5372834362861583  0.2939642599347392  0.16492204308724678  1.0000
  Ti  Ti2       1.0  0.7732273604432309  0.5301977884366315  0.609322429908279  1.0000
  O   O6        1.0  0.9375117584632923  0.1830122209445977  0.9876096604555125  1.0000
  O   O7        1.0  0.4266758146495627  0.6939380773561953  0.9875881727301511  1.0000
