data_image0
_chemical_formula_structural       BaOTiOBaO3TiO
_chemical_formula_sum              "Ba2 O6 Ti2"
_cell_length_a       4.055097598272305
_cell_length_b       4.075842581397969
_cell_length_c       8.20106029510498
_cell_angle_alpha    89.73500482138654
_cell_angle_beta     89.72208893381895
_cell_angle_gamma    89.70930967007413

_space_group_name_H-M_alt    "P 1"
_space_group_IT_number       1

loop_
  _space_group_symop_operation_xyz
  'x, y, z'

loop_
  _atom_site_type_symbol
  _atom_site_label
  _atom_site_symmetry_multiplicity
  _atom_site_fract_x
  _atom_site_fract_y
  _atom_site_fract_z
  _atom_site_occupancy
  Ba  Ba1       1.0  0.5318191010170706  0.3357797570044013  0.05475879451095122  1.0000
  O   O1        1.0  0.04489736313804411  0.850069629235744  0.5698518008453778  1.0000
  Ti  Ti1       1.0  0.018440345553686455  0.8207158453994473  0.29649113398520416  1.0000
  O   O2        1.0  0.045018529325867016  0.8501900601865174  0.06975510977028555  1.0000
  Ba  Ba2       1.0  0.5317029534921709  0.3356858186381006  0.5547579713010127  1.0000
  O   O3        1.0  0.04577075522374362  0.3624487304695029  0.31300202033236574  1.0000
  O   O4        1.0  0.5553317828715519  0.8515983367062367  0.3134501874286386  1.0000
  O   O5        1.0  0.5551692726385867  0.8514330671781298  0.8135746298773693  1.0000
  Ti  Ti2       1.0  0.018058408104771013  0.8206196919251043  0.7965241236548564  1.0000
  O   O6        1.0  0.04525215088339439  0.3623719936868123  0.8131600022766909  1.0000
