data_image0
_chemical_formula_structural       BaTiO5Ba
_chemical_formula_sum              "Ba2 Ti1 O5"
_cell_length_a       3.9864726253464893
_cell_length_b       3.9975122648019465
_cell_length_c       8.545716285705566
_cell_angle_alpha    103.49886065808164
_cell_angle_beta     100.42629977989706
_cell_angle_gamma    89.97734691129223

_space_group_name_H-M_alt    "P 1"
_space_group_IT_number       1

loop_
  _space_group_symop_operation_xyz
  'x, y, z'

loop_
  _atom_site_type_symbol
  _atom_site_label
  _atom_site_symmetry_multiplicity
  _atom_site_fract_x
  _atom_site_fract_y
  _atom_site_fract_z
  _atom_site_occupancy
  Ba  Ba1       1.0  0.5613004809699631  0.4010639151735375  0.44320893388024346  1.0000
  Ti  Ti1       1.0  0.9525174936095124  0.7699078710424934  0.19781487266045847  1.0000
  O   O1        1.0  0.057517052556144636  0.8980839306912144  0.422893003178071  1.0000
  O   O2        1.0  0.9023376202943038  0.6449564937856314  0.9097745630315338  1.0000
  O   O3        1.0  0.9695608282956562  0.284953902842443  0.17994153305457342  1.0000
  O   O4        1.0  0.4691711688036019  0.7781057786483594  0.17228940343882013  1.0000
  O   O5        1.0  0.6256071377566391  0.5648116804878458  0.7616516227104838  1.0000
  Ba  Ba2       1.0  0.38062318218720326  0.14517122588103884  0.9213704337375881  1.0000
