data_image0
_chemical_formula_structural       Ba2O2TiO2BaOTiOTiO4TiO
_chemical_formula_sum              "Ba3 O11 Ti4"
_cell_length_a       4.123521712565605
_cell_length_b       5.713732964102955
_cell_length_c       11.25031566619873
_cell_angle_alpha    89.95027190125886
_cell_angle_beta     89.87132857555955
_cell_angle_gamma    90.01446201435486

_space_group_name_H-M_alt    "P 1"
_space_group_IT_number       1

loop_
  _space_group_symop_operation_xyz
  'x, y, z'

loop_
  _atom_site_type_symbol
  _atom_site_label
  _atom_site_symmetry_multiplicity
  _atom_site_fract_x
  _atom_site_fract_y
  _atom_site_fract_z
  _atom_site_occupancy
  Ba  Ba1       1.0  0.11580336658008296  0.2916738558644188  0.8783233192835153  1.0000
  Ba  Ba2       1.0  0.11809894375771925  0.7913144583981171  0.14995619984250638  1.0000
  O   O1        1.0  0.07843481538712838  0.7917017038366415  0.9072947768525164  1.0000
  O   O2        1.0  0.5858753422367299  0.5700643585830495  0.7709210836392909  1.0000
  Ti  Ti1       1.0  0.6414919063242983  0.791660053044574  0.9066097594953273  1.0000
  O   O3        1.0  0.5890813043759643  0.046141274031424984  0.02329432717698003  1.0000
  O   O4        1.0  0.5874903545537914  0.5365829460987654  0.2766212885471821  1.0000
  Ba  Ba3       1.0  0.11249592221586159  0.29105679098909476  0.42178445061810266  1.0000
  O   O5        1.0  0.07376340439881489  0.2913627252970485  0.14996108544782766  1.0000
  Ti  Ti2       1.0  0.5116953833349711  0.7914781736019344  0.6502053758845958  1.0000
  O   O6        1.0  0.5801638924878939  0.5698034769887345  0.5291369893186284  1.0000
  Ti  Ti3       1.0  0.6384592633692341  0.7910268597252581  0.39330567043352765  1.0000
  O   O7        1.0  0.5888696053560242  0.5369738694478422  0.02333913391380679  1.0000
  O   O8        1.0  0.5817905775288037  0.012771861577735  0.5290071845306035  1.0000
  O   O9        1.0  0.5845200031974376  0.01308797662477711  0.7708219033143291  1.0000
  O   O10       1.0  0.5872627917990724  0.045822774040375665  0.2765586125672552  1.0000
  Ti  Ti4       1.0  0.6340978561387134  0.2912983659687194  0.15000954304661013  1.0000
  O   O11       1.0  0.07538313064115121  0.791112971924436  0.3924620940977954  1.0000
