data_image0
_chemical_formula_structural       BaOTiBaO3
_chemical_formula_sum              "Ba2 O4 Ti1"
_cell_length_a       4.038684712632493
_cell_length_b       4.040715705529168
_cell_length_c       7.312228679656982
_cell_angle_alpha    106.01721902190157
_cell_angle_beta     106.03221755996712
_cell_angle_gamma    89.99439500984649

_space_group_name_H-M_alt    "P 1"
_space_group_IT_number       1

loop_
  _space_group_symop_operation_xyz
  'x, y, z'

loop_
  _atom_site_type_symbol
  _atom_site_label
  _atom_site_symmetry_multiplicity
  _atom_site_fract_x
  _atom_site_fract_y
  _atom_site_fract_z
  _atom_site_occupancy
  Ba  Ba1       1.0  0.35978088441666145  0.05390643954627775  0.9218704618537472  1.0000
  O   O1        1.0  0.003879444777537681  0.19799714202022498  0.20933267287195442  1.0000
  Ti  Ti1       1.0  0.0035324483161187368  0.6973826468367277  0.20931800992548286  1.0000
  Ba  Ba2       1.0  0.6476429415677698  0.34154627508506474  0.4970526956080195  1.0000
  O   O2        1.0  0.5039599651849851  0.6979057688559452  0.20941629290609917  1.0000
  O   O3        1.0  0.8557985568717871  0.550016109169167  0.9138470455373857  1.0000
  O   O4        1.0  0.1516365465238749  0.8455301453413092  0.5046964966813947  1.0000
