data_image0
_chemical_formula_structural       OBaTiBaTiBaOBaO6
_chemical_formula_sum              "O8 Ba4 Ti2"
_cell_length_a       6.345263675849813
_cell_length_b       6.3487822744468305
_cell_length_c       7.018343925476074
_cell_angle_alpha    102.03244610151779
_cell_angle_beta     102.21183434465938
_cell_angle_gamma    110.868099169136

_space_group_name_H-M_alt    "P 1"
_space_group_IT_number       1

loop_
  _space_group_symop_operation_xyz
  'x, y, z'

loop_
  _atom_site_type_symbol
  _atom_site_label
  _atom_site_symmetry_multiplicity
  _atom_site_fract_x
  _atom_site_fract_y
  _atom_site_fract_z
  _atom_site_occupancy
  O   O1        1.0  0.5582467254892425  0.39112257171410014  0.8902223745779771  1.0000
  Ba  Ba1       1.0  0.9326594543017761  0.6390671903770141  0.7221189464608915  1.0000
  Ti  Ti1       1.0  0.6250692535890702  0.9465279858075027  0.22229001667661774  1.0000
  Ba  Ba2       1.0  0.9511672772024206  0.6209623237188538  0.2222740859147118  1.0000
  Ti  Ti2       1.0  0.2587067456881009  0.3134437412212966  0.7220214446483328  1.0000
  Ba  Ba3       1.0  0.5886046868138447  0.983938845480597  0.7220561523735849  1.0000
  O   O2        1.0  0.8314362868012601  0.9426782896609244  0.07381988296957262  1.0000
  Ba  Ba4       1.0  0.2952723761876694  0.2761413186770216  0.2223105713353898  1.0000
  O   O3        1.0  0.05227595909559021  0.31732605922047147  0.8704170156475373  1.0000
  O   O4        1.0  0.7027003081611772  0.24529894890105125  0.3905627240145421  1.0000
  O   O5        1.0  0.6293723320943019  0.7397741228468925  0.3705858798349145  1.0000
  O   O6        1.0  0.1810520340315525  0.014653997497992873  0.5537344005203764  1.0000
  O   O7        1.0  0.3255151038541424  0.8688103773906947  0.05413527392934815  1.0000
  O   O8        1.0  0.25440959005022085  0.5201468619551572  0.5736845329958479  1.0000
