data_image0
_chemical_formula_structural       BaTiBaOBaTiBaO7Ba2
_chemical_formula_sum              "Ba6 Ti2 O8"
_cell_length_a       5.665727279692182
_cell_length_b       5.668048452926056
_cell_length_c       9.970648765563965
_cell_angle_alpha    90.03445397614166
_cell_angle_beta     89.98720956077666
_cell_angle_gamma    89.9304985009303

_space_group_name_H-M_alt    "P 1"
_space_group_IT_number       1

loop_
  _space_group_symop_operation_xyz
  'x, y, z'

loop_
  _atom_site_type_symbol
  _atom_site_label
  _atom_site_symmetry_multiplicity
  _atom_site_fract_x
  _atom_site_fract_y
  _atom_site_fract_z
  _atom_site_occupancy
  Ba  Ba1       1.0  0.6022190280169718  0.6119758674250151  0.34293154946151805  1.0000
  Ti  Ti1       1.0  0.5612394967528056  0.652944000158631  0.842833790304638  1.0000
  Ba  Ba2       1.0  0.5911814365654742  0.12307340158007044  0.09300190213328274  1.0000
  O   O1        1.0  0.5931487592656756  0.6208802436035107  0.6366611870774879  1.0000
  Ba  Ba3       1.0  0.1022868258550242  0.11292021024096217  0.8428946728056271  1.0000
  Ti  Ti2       1.0  0.06153449880766198  0.1528668412600936  0.3429022050289393  1.0000
  Ba  Ba4       1.0  0.09089420469193824  0.6236227825502499  0.5927795924100808  1.0000
  O   O2        1.0  0.09319685454377452  0.12106741834854376  0.13658212669621642  1.0000
  O   O3        1.0  0.6647976900484212  0.9733180885326799  0.8428405510288783  1.0000
  O   O4        1.0  0.2400493909886442  0.5517813918913769  0.8428067587639709  1.0000
  O   O5        1.0  0.09310467238666242  0.12136517696148455  0.5491831452754159  1.0000
  O   O6        1.0  0.7410180885123991  0.0492256330726963  0.3428895048683734  1.0000
  O   O7        1.0  0.5933033836351995  0.6208005316810614  0.04888872711305002  1.0000
  O   O8        1.0  0.16490821222288118  0.47332398141341653  0.3428855438600678  1.0000
  Ba  Ba5       1.0  0.5911519820604335  0.12327231543340846  0.5928376898506141  1.0000
  Ba  Ba6       1.0  0.09103130535483028  0.6235839425016837  0.09301859846781896  1.0000
