data_image0
_chemical_formula_structural       OBaOTi
_chemical_formula_sum              "O2 Ba1 Ti1"
_cell_length_a       3.3075869769386466
_cell_length_b       3.306642353557499
_cell_length_c       6.322732925415039
_cell_angle_alpha    74.87730763381033
_cell_angle_beta     74.85832516222197
_cell_angle_gamma    60.10759255852994

_space_group_name_H-M_alt    "P 1"
_space_group_IT_number       1

loop_
  _space_group_symop_operation_xyz
  'x, y, z'

loop_
  _atom_site_type_symbol
  _atom_site_label
  _atom_site_symmetry_multiplicity
  _atom_site_fract_x
  _atom_site_fract_y
  _atom_site_fract_z
  _atom_site_occupancy
  O   O1        1.0  0.8393176660967763  0.05350460190499735  0.6307226796914815  1.0000
  Ba  Ba1       1.0  0.06124510009689974  0.2754737795559726  0.964874438677674  1.0000
  O   O2        1.0  0.28315603106835274  0.49737750539238373  0.2990789824512619  1.0000
  Ti  Ti1       1.0  0.5612346861546389  0.7755899731494844  0.46487080022802857  1.0000
