data_image0
_chemical_formula_structural       Ba2O4Ti
_chemical_formula_sum              "Ba2 O4 Ti1"
_cell_length_a       4.052452424876159
_cell_length_b       4.052070736348861
_cell_length_c       7.328902721405029
_cell_angle_alpha    106.05771435634014
_cell_angle_beta     106.02767685768056
_cell_angle_gamma    90.00181922699436

_space_group_name_H-M_alt    "P 1"
_space_group_IT_number       1

loop_
  _space_group_symop_operation_xyz
  'x, y, z'

loop_
  _atom_site_type_symbol
  _atom_site_label
  _atom_site_symmetry_multiplicity
  _atom_site_fract_x
  _atom_site_fract_y
  _atom_site_fract_z
  _atom_site_occupancy
  Ba  Ba1       1.0  0.9930601515069816  0.029191520039947003  0.4713217922894155  1.0000
  Ba  Ba2       1.0  0.2801275811538431  0.31645039650142265  0.04546081075274148  1.0000
  O   O1        1.0  0.13666484560625014  0.6730749270889761  0.7582823064023172  1.0000
  O   O2        1.0  0.48921273177518076  0.5253140420329627  0.46348553820241195  1.0000
  O   O3        1.0  0.6367158919217135  0.17312332658129267  0.7583085539735877  1.0000
  O   O4        1.0  0.7839144133508559  0.8203302861715766  0.05299624708908864  1.0000
  Ti  Ti1       1.0  0.6365651531406865  0.67261084835786  0.7583258501636848  1.0000
