data_image0
_chemical_formula_structural       OBaO3BaOTi2O
_chemical_formula_sum              "O6 Ba2 Ti2"
_cell_length_a       5.583730033368979
_cell_length_b       5.589870581855014
_cell_length_c       6.031333923339844
_cell_angle_alpha    117.52411243568308
_cell_angle_beta     117.48728470430802
_cell_angle_gamma    89.89065883422163

_space_group_name_H-M_alt    "P 1"
_space_group_IT_number       1

loop_
  _space_group_symop_operation_xyz
  'x, y, z'

loop_
  _atom_site_type_symbol
  _atom_site_label
  _atom_site_symmetry_multiplicity
  _atom_site_fract_x
  _atom_site_fract_y
  _atom_site_fract_z
  _atom_site_occupancy
  O   O1        1.0  0.23786901931941296  0.6600265366414948  0.6046689272250502  1.0000
  Ba  Ba1       1.0  0.7064412268368824  0.12920464546068683  0.042884821373588344  1.0000
  O   O2        1.0  0.7375645644026231  0.1603107999712152  0.6044584579065903  1.0000
  O   O3        1.0  0.7367837760708111  0.6593182421008206  0.6031981270056653  1.0000
  O   O4        1.0  0.7571301298897347  0.6796271157693347  0.14301287551264827  1.0000
  Ba  Ba2       1.0  0.2062191107869542  0.6286831368347646  0.042037910244226866  1.0000
  O   O5        1.0  0.2557885731959026  0.17841405340005737  0.1414360865093285  1.0000
  Ti  Ti1       1.0  0.4517703725316529  0.37459778392328036  0.5339334655832075  1.0000
  Ti  Ti2       1.0  0.9524487822465001  0.8752495102316369  0.5351478869922783  1.0000
  O   O6        1.0  0.23750326298972718  0.16002125777586448  0.6041912259474068  1.0000
