data_image0
_chemical_formula_structural       TiBaOBaO3TiO2
_chemical_formula_sum              "Ti2 Ba2 O6"
_cell_length_a       4.286030031586753
_cell_length_b       5.628988828067529
_cell_length_c       5.63241720199585
_cell_angle_alpha    90.1619872698023
_cell_angle_beta     90.0785770026923
_cell_angle_gamma    90.07305820399534

_space_group_name_H-M_alt    "P 1"
_space_group_IT_number       1

loop_
  _space_group_symop_operation_xyz
  'x, y, z'

loop_
  _atom_site_type_symbol
  _atom_site_label
  _atom_site_symmetry_multiplicity
  _atom_site_fract_x
  _atom_site_fract_y
  _atom_site_fract_z
  _atom_site_occupancy
  Ti  Ti1       1.0  0.63156683963605  0.7667057203030799  0.7531775648873347  1.0000
  Ba  Ba1       1.0  0.11308300687992567  0.7667867690284464  0.25341282249233626  1.0000
  O   O1        1.0  0.5791154265190454  0.5168332406447127  0.5036093785233609  1.0000
  Ba  Ba2       1.0  0.11302924045362689  0.2667255473567622  0.7534070954653691  1.0000
  O   O2        1.0  0.5791609501087078  0.016789499335730592  0.0036555025713142413  1.0000
  O   O3        1.0  0.5801124722273918  0.016786650601269337  0.5036788301596279  1.0000
  O   O4        1.0  0.05503957657499779  0.7668136141377903  0.7535910984257556  1.0000
  Ti  Ti2       1.0  0.6315770198850438  0.2667530552849301  0.253176692645507  1.0000
  O   O5        1.0  0.055047439255689744  0.2669311790269329  0.25360916707017367  1.0000
  O   O6        1.0  0.5801288699257949  0.5167369284629975  0.0036289430437533047  1.0000
