data_image0
_chemical_formula_structural       TiBa2O4TiBaOTiO3
_chemical_formula_sum              "Ti3 Ba3 O8"
_cell_length_a       4.015887878077335
_cell_length_b       4.013583665117296
_cell_length_c       12.394342422485352
_cell_angle_alpha    90.00285752354306
_cell_angle_beta     90.0151723568913
_cell_angle_gamma    90.00281654240825

_space_group_name_H-M_alt    "P 1"
_space_group_IT_number       1

loop_
  _space_group_symop_operation_xyz
  'x, y, z'

loop_
  _atom_site_type_symbol
  _atom_site_label
  _atom_site_symmetry_multiplicity
  _atom_site_fract_x
  _atom_site_fract_y
  _atom_site_fract_z
  _atom_site_occupancy
  Ti  Ti1       1.0  0.2697965452441205  0.19059940068055983  0.5787340013882417  1.0000
  Ba  Ba1       1.0  0.7697971660430185  0.6905956324106844  0.42076628793055537  1.0000
  Ba  Ba2       1.0  0.769945721519597  0.6902423700789753  0.09695079847287533  1.0000
  O   O1        1.0  0.2699343806207911  0.1902536813451649  0.09070440161060893  1.0000
  O   O2        1.0  0.7698020652143035  0.19059018280791076  0.6018430366833116  1.0000
  O   O3        1.0  0.26978757883700955  0.19060022481092107  0.4273281956626758  1.0000
  O   O4        1.0  0.269779925879131  0.6906226151031866  0.6019555852942214  1.0000
  Ti  Ti2       1.0  0.2699716953806622  0.19020327512222152  0.9391893791778155  1.0000
  Ba  Ba3       1.0  0.76989016859134  0.6903905689556761  0.7589839068211985  1.0000
  O   O5        1.0  0.7698392160351619  0.19042239704089206  0.258946167996157  1.0000
  Ti  Ti3       1.0  0.269861434740669  0.19042642481463895  0.2588525021879168  1.0000
  O   O6        1.0  0.7699560853796082  0.19020141986647718  0.9162108992536161  1.0000
  O   O7        1.0  0.26983472380581963  0.6904275474971692  0.25897442364732737  1.0000
  O   O8        1.0  0.2699879758800758  0.6901851954716877  0.9161486779253191  1.0000
