data_image0
_chemical_formula_structural       O2TiBa
_chemical_formula_sum              "O2 Ti1 Ba1"
_cell_length_a       3.3070772210835595
_cell_length_b       3.309984466277221
_cell_length_c       6.321207046508789
_cell_angle_alpha    74.88443755963641
_cell_angle_beta     74.88236236297469
_cell_angle_gamma    60.068957988676125

_space_group_name_H-M_alt    "P 1"
_space_group_IT_number       1

loop_
  _space_group_symop_operation_xyz
  'x, y, z'

loop_
  _atom_site_type_symbol
  _atom_site_label
  _atom_site_symmetry_multiplicity
  _atom_site_fract_x
  _atom_site_fract_y
  _atom_site_fract_z
  _atom_site_occupancy
  O   O1        1.0  0.815141917502304  0.8583286659312631  0.01862699985467691  1.0000
  O   O2        1.0  0.37129590697237963  0.4146135731361919  0.35019597836847344  1.0000
  Ti  Ti1       1.0  0.09340289696778059  0.13637949463879173  0.18448548736323134  1.0000
  Ba  Ba1       1.0  0.5931152535467572  0.6364389157097516  0.684434842707656  1.0000
