data_image0
_chemical_formula_structural       OBaOTiO3Ba
_chemical_formula_sum              "O5 Ba2 Ti1"
_cell_length_a       3.9970237702779516
_cell_length_b       4.048676879024823
_cell_length_c       8.60284423828125
_cell_angle_alpha    105.23064073591752
_cell_angle_beta     103.11539916018218
_cell_angle_gamma    89.96735427922988

_space_group_name_H-M_alt    "P 1"
_space_group_IT_number       1

loop_
  _space_group_symop_operation_xyz
  'x, y, z'

loop_
  _atom_site_type_symbol
  _atom_site_label
  _atom_site_symmetry_multiplicity
  _atom_site_fract_x
  _atom_site_fract_y
  _atom_site_fract_z
  _atom_site_occupancy
  O   O1        1.0  0.3596363236246629  0.03517691241699236  0.5913226682709797  1.0000
  Ba  Ba1       1.0  0.10230569470296107  0.8368282382694787  0.09522092333878786  1.0000
  O   O2        1.0  0.4859965703873788  0.66509292916939  0.8417655865051102  1.0000
  Ti  Ti1       1.0  0.45283773703095775  0.1720943012162947  0.8181973178754933  1.0000
  O   O3        1.0  0.9874233049094014  0.16437380920179542  0.8362639458080301  1.0000
  O   O4        1.0  0.677890348759621  0.22721423156001694  0.25401225468338695  1.0000
  O   O5        1.0  0.6170191832647759  0.3686556896512331  0.10722010329373531  1.0000
  Ba  Ba2       1.0  0.8418915502596113  0.5334080360919007  0.5734469040757786  1.0000
