data_image0
_chemical_formula_structural       OTiBaTiO4
_chemical_formula_sum              "O5 Ti2 Ba1"
_cell_length_a       5.079006650095135
_cell_length_b       5.369972363093437
_cell_length_c       5.649816989898682
_cell_angle_alpha    89.98719590046127
_cell_angle_beta     90.11365002187213
_cell_angle_gamma    121.5232444710768

_space_group_name_H-M_alt    "P 1"
_space_group_IT_number       1

loop_
  _space_group_symop_operation_xyz
  'x, y, z'

loop_
  _atom_site_type_symbol
  _atom_site_label
  _atom_site_symmetry_multiplicity
  _atom_site_fract_x
  _atom_site_fract_y
  _atom_site_fract_z
  _atom_site_occupancy
  O   O1        1.0  0.5097393801606304  0.8233192035980892  0.8462944467946006  1.0000
  Ti  Ti1       1.0  0.5427623493460003  0.11136748129522331  0.6240470537193521  1.0000
  Ba  Ba1       1.0  0.9375766397012957  0.7842725666088507  0.12388816926464762  1.0000
  Ti  Ti2       1.0  0.32654705635169257  0.5037983115923853  0.6239426837029277  1.0000
  O   O2        1.0  0.3594194544803112  0.24841875328856144  0.8462430250402596  1.0000
  O   O3        1.0  0.509176307537505  0.8228933650064212  0.40177562561833774  1.0000
  O   O4        1.0  0.933808152804198  0.43391980997276314  0.6238686840706934  1.0000
  O   O5        1.0  0.35804587909304464  0.24766127449288575  0.4017557172888082  1.0000
