data_image0
_chemical_formula_structural       O3BaTiBaO3BaTi3O6Ba
_chemical_formula_sum              "O12 Ba4 Ti4"
_cell_length_a       5.294977439927885
_cell_length_b       7.161220790167138
_cell_length_c       10.088226318359375
_cell_angle_alpha    82.25353691136868
_cell_angle_beta     86.73709827996288
_cell_angle_gamma    67.20209467823229

_space_group_name_H-M_alt    "P 1"
_space_group_IT_number       1

loop_
  _space_group_symop_operation_xyz
  'x, y, z'

loop_
  _atom_site_type_symbol
  _atom_site_label
  _atom_site_symmetry_multiplicity
  _atom_site_fract_x
  _atom_site_fract_y
  _atom_site_fract_z
  _atom_site_occupancy
  O   O1        1.0  0.40750834558010846  0.591210637872962  0.47752509918275  1.0000
  O   O2        1.0  0.7408587151473546  0.7351242708197387  0.3149883707062462  1.0000
  O   O3        1.0  0.97451595316608  0.8472153199131635  0.8236354610294204  1.0000
  Ba  Ba1       1.0  0.10026721118201606  0.37158421567453825  0.5238926819486954  1.0000
  Ti  Ti1       1.0  0.41452552815957544  0.8390334982016846  0.4368566836287911  1.0000
  Ba  Ba2       1.0  0.5015857091275349  0.5034769505931104  0.20244262559650786  1.0000
  O   O4        1.0  0.5386167272675713  0.7113093825825078  0.9689824515193342  1.0000
  O   O5        1.0  0.6813454402162693  0.7925450385027775  0.5904709761973252  1.0000
  O   O6        1.0  0.5368292635869198  0.13488898167374855  0.3730763696701067  1.0000
  Ba  Ba3       1.0  0.22678671205654855  0.09891491782960692  0.9982062931586825  1.0000
  Ti  Ti2       1.0  0.8135785252593354  0.9671030074583682  0.6544736327705004  1.0000
  Ti  Ti3       1.0  0.9006791388589026  0.6332021568265536  0.9345807695794475  1.0000
  Ti  Ti4       1.0  0.8004789104885901  0.9741532365396669  0.26698258057201174  1.0000
  O   O7        1.0  0.7168333717262162  0.10278794201115095  0.09995889803297461  1.0000
  O   O8        1.0  0.1752751721902458  0.9262270796710871  0.27943667452938803  1.0000
  O   O9        1.0  0.08406156614057879  0.48756313591441025  0.0826936109938938  1.0000
  O   O10       1.0  0.5476602755054063  0.20082409583720354  0.6829287904428175  1.0000
  O   O11       1.0  0.9862829941298038  0.4411459608145864  0.8193996261153983  1.0000
  O   O12       1.0  0.10809058967313158  0.9927361361769274  0.552651093355599  1.0000
  Ba  Ba4       1.0  0.4615120987151853  0.5588460088460279  0.7493937713486237  1.0000
