data_image0
_chemical_formula_structural       OTiOTiBaO4Ba
_chemical_formula_sum              "O6 Ti2 Ba2"
_cell_length_a       4.101437498497457
_cell_length_b       4.101618418647948
_cell_length_c       7.998222827911378
_cell_angle_alpha    90.05708922418947
_cell_angle_beta     90.07742269446929
_cell_angle_gamma    89.86814571158324

_space_group_name_H-M_alt    "P 1"
_space_group_IT_number       1

loop_
  _space_group_symop_operation_xyz
  'x, y, z'

loop_
  _atom_site_type_symbol
  _atom_site_label
  _atom_site_symmetry_multiplicity
  _atom_site_fract_x
  _atom_site_fract_y
  _atom_site_fract_z
  _atom_site_occupancy
  O   O1        1.0  0.7433586091109579  0.45513696718552554  0.4799008032444657  1.0000
  Ti  Ti1       1.0  0.71128760873396  0.906689380257924  0.9806277860855944  1.0000
  O   O2        1.0  0.7484895235408568  0.9442208105544727  0.7292730358013797  1.0000
  Ti  Ti2       1.0  0.7113705741146211  0.9067620019419225  0.48075618430318323  1.0000
  Ba  Ba1       1.0  0.22788882760837337  0.42331841333471254  0.7300980421815028  1.0000
  O   O3        1.0  0.748634522734962  0.9441479764834346  0.22918424991331787  1.0000
  O   O4        1.0  0.25945030936537083  0.9384561297139761  0.9792043780059623  1.0000
  O   O5        1.0  0.743088207642951  0.454922755632036  0.9797214212929556  1.0000
  O   O6        1.0  0.25966164254258883  0.9388316788476384  0.47956375973766063  1.0000
  Ba  Ba2       1.0  0.22811856292207264  0.42320074682046727  0.22994873349368045  1.0000
