data_image0
_chemical_formula_structural       Ba3OTiBa2OTiO5
_chemical_formula_sum              "Ba5 O7 Ti2"
_cell_length_a       6.945547009600764
_cell_length_b       6.643679250994273
_cell_length_c       7.139581680297851
_cell_angle_alpha    83.70947338457378
_cell_angle_beta     79.15248773580156
_cell_angle_gamma    69.41020566873374

_space_group_name_H-M_alt    "P 1"
_space_group_IT_number       1

loop_
  _space_group_symop_operation_xyz
  'x, y, z'

loop_
  _atom_site_type_symbol
  _atom_site_label
  _atom_site_symmetry_multiplicity
  _atom_site_fract_x
  _atom_site_fract_y
  _atom_site_fract_z
  _atom_site_occupancy
  Ba  Ba1       1.0  0.036652456867035554  0.7263088869350423  0.27064957791574396  1.0000
  Ba  Ba2       1.0  0.5686575586759404  0.7102770336454524  0.09764571238540405  1.0000
  Ba  Ba3       1.0  0.302707710905101  0.7182957026283376  0.6841297743554434  1.0000
  O   O1        1.0  0.4687116374139136  0.02835548925578982  0.8083302608183826  1.0000
  Ti  Ti1       1.0  0.004319736648479616  0.24985041028174937  0.4698539150787704  1.0000
  Ba  Ba4       1.0  0.0785582582485175  0.2513013638750732  0.9505722223617862  1.0000
  Ba  Ba5       1.0  0.5267122397913997  0.18529226636736937  0.4176836892281588  1.0000
  O   O2        1.0  0.8025970379334938  0.21835096752802213  0.68414297089682  1.0000
  Ti  Ti2       1.0  0.6009367558045623  0.1867487768056115  0.8984457377358922  1.0000
  O   O3        1.0  0.386518032363889  0.41229828906548793  0.022447686728997107  1.0000
  O   O4        1.0  0.21873541610493727  0.024292980594754935  0.34588562052668664  1.0000
  O   O5        1.0  0.7514647731621433  0.030213072937256575  0.0840817670644529  1.0000
  O   O6        1.0  0.8538153963942768  0.40636829239215083  0.2842086087673901  1.0000
  O   O7        1.0  0.13656108736753017  0.4082258610389481  0.5599412040867653  1.0000
