data_image0
_chemical_formula_structural       BaTiO2TiO4BaO2
_chemical_formula_sum              "Ba2 Ti2 O8"
_cell_length_a       4.0969005701486525
_cell_length_b       5.904701200103719
_cell_length_c       6.654224395751953
_cell_angle_alpha    89.82779294302007
_cell_angle_beta     96.18023060170329
_cell_angle_gamma    89.91042456559532

_space_group_name_H-M_alt    "P 1"
_space_group_IT_number       1

loop_
  _space_group_symop_operation_xyz
  'x, y, z'

loop_
  _atom_site_type_symbol
  _atom_site_label
  _atom_site_symmetry_multiplicity
  _atom_site_fract_x
  _atom_site_fract_y
  _atom_site_fract_z
  _atom_site_occupancy
  Ba  Ba1       1.0  0.16819432094295697  0.043438703268623535  0.05079772403694683  1.0000
  Ti  Ti1       1.0  0.7115605458074742  0.04292131959856837  0.5008128044883113  1.0000
  O   O1        1.0  0.7308576197687172  0.7927414107094451  0.3129957944111122  1.0000
  O   O2        1.0  0.8351142131385605  0.2804070128387537  0.7295095342385726  1.0000
  Ti  Ti2       1.0  0.7500224364788751  0.5434593957277304  0.12446662374278103  1.0000
  O   O3        1.0  0.7305920511158509  0.2927112679113132  0.31222990546668367  1.0000
  O   O4        1.0  0.836544697172805  0.8064940402949896  0.7306970058376099  1.0000
  O   O5        1.0  0.28027728614105196  0.04269559596700737  0.514798696680022  1.0000
  O   O6        1.0  0.6253477173847753  0.780251328566455  0.8950693125852632  1.0000
  Ba  Ba2       1.0  0.29349917501542017  0.5435624375345474  0.5744101403176943  1.0000
  O   O7        1.0  0.626402078385814  0.3063880708397554  0.8952461789658962  1.0000
  O   O8        1.0  0.18132816701808196  0.5434375230878266  0.11057755938891309  1.0000
