data_image0
_chemical_formula_structural       TiBaO2BaO
_chemical_formula_sum              "Ti1 Ba2 O3"
_cell_length_a       3.9743942001755883
_cell_length_b       4.033219733527946
_cell_length_c       7.335903644561768
_cell_angle_alpha    106.101053678182
_cell_angle_beta     105.99644617814933
_cell_angle_gamma    90.20368533255875

_space_group_name_H-M_alt    "P 1"
_space_group_IT_number       1

loop_
  _space_group_symop_operation_xyz
  'x, y, z'

loop_
  _atom_site_type_symbol
  _atom_site_label
  _atom_site_symmetry_multiplicity
  _atom_site_fract_x
  _atom_site_fract_y
  _atom_site_fract_z
  _atom_site_occupancy
  Ti  Ti1       1.0  0.14828750847232447  0.6509870505692781  0.1569681041365836  1.0000
  Ba  Ba1       1.0  0.7993971816408079  0.3019017526665455  0.45799657450746845  1.0000
  O   O1        1.0  0.2928552867346609  0.7964874055430372  0.44593695263131244  1.0000
  O   O2        1.0  0.1483429532893982  0.15094486918742844  0.15686630196226747  1.0000
  Ba  Ba2       1.0  0.49708016480434447  2.318637972375328e-05  0.8557999973919881  1.0000
  O   O3        1.0  0.0033767524267986626  0.5053911295370058  0.8677689572149371  1.0000
