data_image0
_chemical_formula_structural       BaTiO2
_chemical_formula_sum              "Ba1 Ti1 O2"
_cell_length_a       3.3312745914282624
_cell_length_b       3.329444095880286
_cell_length_c       6.303282737731933
_cell_angle_alpha    74.66178656279816
_cell_angle_beta     74.63887228549198
_cell_angle_gamma    59.94420770088431

_space_group_name_H-M_alt    "P 1"
_space_group_IT_number       1

loop_
  _space_group_symop_operation_xyz
  'x, y, z'

loop_
  _atom_site_type_symbol
  _atom_site_label
  _atom_site_symmetry_multiplicity
  _atom_site_fract_x
  _atom_site_fract_y
  _atom_site_fract_z
  _atom_site_occupancy
  Ba  Ba1       1.0  0.6117336459942451  0.6211288076822503  0.06701777849501438  1.0000
  Ti  Ti1       1.0  0.11154497033789558  0.1208824201510421  0.5671559455431916  1.0000
  O   O1        1.0  0.833334256324554  0.8426430119293815  0.4021234207756451  1.0000
  O   O2        1.0  0.38989179585361394  0.3993401428497369  0.731992140818877  1.0000
