data_image0
_chemical_formula_structural       TiO3TiOBaO2Ba
_chemical_formula_sum              "Ti2 O6 Ba2"
_cell_length_a       5.128895833571577
_cell_length_b       5.88842013311233
_cell_length_c       5.893596649169923
_cell_angle_alpha    120.18519738909916
_cell_angle_beta     90.12635416649931
_cell_angle_gamma    90.05801813898763

_space_group_name_H-M_alt    "P 1"
_space_group_IT_number       1

loop_
  _space_group_symop_operation_xyz
  'x, y, z'

loop_
  _atom_site_type_symbol
  _atom_site_label
  _atom_site_symmetry_multiplicity
  _atom_site_fract_x
  _atom_site_fract_y
  _atom_site_fract_z
  _atom_site_occupancy
  Ti  Ti1       1.0  0.7909977546534951  0.30009129374112115  0.3631521796179586  1.0000
  O   O1        1.0  0.010262107402993138  0.43055524623586844  0.18338239115945473  1.0000
  O   O2        1.0  0.9972314149412573  0.4429448050911869  0.648191906777384  1.0000
  O   O3        1.0  0.510919534471616  0.5648210958641204  0.45088295147383306  1.0000
  Ti  Ti2       1.0  0.2907738439520446  0.2525920564086154  0.2713445603378864  1.0000
  O   O4        1.0  0.009536908048231298  0.9879249831383841  0.1837243831537368  1.0000
  Ba  Ba1       1.0  0.08056274688752744  0.9364680905654783  0.6364223816096715  1.0000
  O   O5        1.0  0.5105078391931537  0.12212751263379246  0.4511978315087179  1.0000
  O   O6        1.0  0.4953753424622029  0.10981388996771539  0.9864666475489049  1.0000
  Ba  Ba2       1.0  0.5805369545345941  0.6156616204478046  0.9968712099819074  1.0000
