data_image0
_chemical_formula_structural       OTiO3BaTiOBaO
_chemical_formula_sum              "O6 Ti2 Ba2"
_cell_length_a       4.513279645602984
_cell_length_b       5.5898371081519755
_cell_length_c       5.592789173126221
_cell_angle_alpha    89.92872264881328
_cell_angle_beta     89.92818306441431
_cell_angle_gamma    89.96611110743221

_space_group_name_H-M_alt    "P 1"
_space_group_IT_number       1

loop_
  _space_group_symop_operation_xyz
  'x, y, z'

loop_
  _atom_site_type_symbol
  _atom_site_label
  _atom_site_symmetry_multiplicity
  _atom_site_fract_x
  _atom_site_fract_y
  _atom_site_fract_z
  _atom_site_occupancy
  O   O1        1.0  0.979499669543837  0.9224077887832159  0.3224449217894569  1.0000
  Ti  Ti1       1.0  0.9124720345538249  0.6719275655771993  0.5721355894453206  1.0000
  O   O2        1.0  0.9789470914462093  0.42239790304595776  0.32238804554062606  1.0000
  O   O3        1.0  0.979419147071106  0.4223169708280316  0.8223334295530437  1.0000
  O   O4        1.0  0.5145386546629638  0.6722588282254667  0.5724146907752443  1.0000
  Ba  Ba1       1.0  0.4224858618161397  0.17211625556227034  0.5722347278289142  1.0000
  Ti  Ti2       1.0  0.9125037875758681  0.17190526248043378  0.07212678576643532  1.0000
  O   O5        1.0  0.5145754590324128  0.172173911085008  0.07238314579933912  1.0000
  Ba  Ba2       1.0  0.4222281301234349  0.6720979905247133  0.07225131493209709  1.0000
  O   O6        1.0  0.9791033897346082  0.9223234493898749  0.8224501741783704  1.0000
