data_image0
_chemical_formula_structural       OTiOBa
_chemical_formula_sum              "O2 Ti1 Ba1"
_cell_length_a       3.3074420422239568
_cell_length_b       3.307936941195937
_cell_length_c       6.275068283081055
_cell_angle_alpha    74.72616822956724
_cell_angle_beta     74.73655760956022
_cell_angle_gamma    60.0781211930555

_space_group_name_H-M_alt    "P 1"
_space_group_IT_number       1

loop_
  _space_group_symop_operation_xyz
  'x, y, z'

loop_
  _atom_site_type_symbol
  _atom_site_label
  _atom_site_symmetry_multiplicity
  _atom_site_fract_x
  _atom_site_fract_y
  _atom_site_fract_z
  _atom_site_occupancy
  O   O1        1.0  0.5327355149384093  0.18349289947794645  0.9310465521840235  1.0000
  Ti  Ti1       1.0  0.2544588061854481  0.9053344795781407  0.7656291636969791  1.0000
  O   O2        1.0  0.9764930341101971  0.6272041594582612  0.5998325740119073  1.0000
  Ba  Ba1       1.0  0.7549254826707279  0.4052437303681755  0.2653666612684115  1.0000
