data_image0
_chemical_formula_structural       BaOTiO2
_chemical_formula_sum              "Ba1 O3 Ti1"
_cell_length_a       4.045928650935182
_cell_length_b       4.098169935596126
_cell_length_c       4.102991580963135
_cell_angle_alpha    89.57966584594682
_cell_angle_beta     89.69993180864887
_cell_angle_gamma    89.67546607678103

_space_group_name_H-M_alt    "P 1"
_space_group_IT_number       1

loop_
  _space_group_symop_operation_xyz
  'x, y, z'

loop_
  _atom_site_type_symbol
  _atom_site_label
  _atom_site_symmetry_multiplicity
  _atom_site_fract_x
  _atom_site_fract_y
  _atom_site_fract_z
  _atom_site_occupancy
  Ba  Ba1       1.0  0.2877845093075122  0.7577059014069155  0.69336962296744  1.0000
  O   O1        1.0  0.3090596636868191  0.27664543607558173  0.21269219833774383  1.0000
  Ti  Ti1       1.0  0.7745520116805119  0.24213434723283792  0.17773731233284892  1.0000
  O   O2        1.0  0.7998860236282629  0.7883219459500221  0.21016581810358342  1.0000
  O   O3        1.0  0.7993991297128515  0.2738017215715636  0.7249004421038014  1.0000
