data_image0
_chemical_formula_structural       TiOBaOTiO2BaO2
_chemical_formula_sum              "Ti2 O6 Ba2"
_cell_length_a       4.041423803288617
_cell_length_b       5.47558373750905
_cell_length_c       8.40959644317627
_cell_angle_alpha    61.440480594972
_cell_angle_beta     76.1302656145679
_cell_angle_gamma    68.34150006376923

_space_group_name_H-M_alt    "P 1"
_space_group_IT_number       1

loop_
  _space_group_symop_operation_xyz
  'x, y, z'

loop_
  _atom_site_type_symbol
  _atom_site_label
  _atom_site_symmetry_multiplicity
  _atom_site_fract_x
  _atom_site_fract_y
  _atom_site_fract_z
  _atom_site_occupancy
  Ti  Ti1       1.0  0.16429132297476798  0.5793839668780544  0.2949219483343697  1.0000
  O   O1        1.0  0.23519007857264013  0.19870085676171573  0.5321161131969531  1.0000
  Ba  Ba1       1.0  0.9049188329233979  0.3642679459889906  0.028073579038173733  1.0000
  O   O2        1.0  0.3614942271577933  0.25755648046409385  0.22218108470917175  1.0000
  Ti  Ti2       1.0  0.43252048548768507  0.8768187004116736  0.4594222211283815  1.0000
  O   O3        1.0  0.439631549740294  0.6184402450631356  0.7054754649580091  1.0000
  O   O4        1.0  0.1569997155856117  0.8377461894339835  0.048770092783648994  1.0000
  Ba  Ba2       1.0  0.6918943183317917  0.09179610914623329  0.7262503503300248  1.0000
  O   O5        1.0  0.6320874081714116  0.6052356541327986  0.3319532308653314  1.0000
  O   O6        1.0  0.964469100819957  0.8510844816749468  0.42230188343592234  1.0000
