data_image0
_chemical_formula_structural       BaOBaTi2BaO2BaO6
_chemical_formula_sum              "Ba4 O9 Ti2"
_cell_length_a       5.952263753511155
_cell_length_b       5.953000546291367
_cell_length_c       8.390832901000977
_cell_angle_alpha    89.99906676857024
_cell_angle_beta     89.97904065395734
_cell_angle_gamma    119.90431322186076

_space_group_name_H-M_alt    "P 1"
_space_group_IT_number       1

loop_
  _space_group_symop_operation_xyz
  'x, y, z'

loop_
  _atom_site_type_symbol
  _atom_site_label
  _atom_site_symmetry_multiplicity
  _atom_site_fract_x
  _atom_site_fract_y
  _atom_site_fract_z
  _atom_site_occupancy
  Ba  Ba1       1.0  0.6988379690212869  0.2859020294592808  0.7126595370056491  1.0000
  O   O1        1.0  0.18983091103114985  0.2679494633416126  0.7374776906012721  1.0000
  Ba  Ba2       1.0  0.03217632224888159  0.9525746191431507  0.21336833571416686  1.0000
  Ti  Ti1       1.0  0.03218257717567272  0.9525031775255951  0.633271288164887  1.0000
  Ti  Ti2       1.0  0.6987713689388977  0.28581317174781856  0.2928224481806627  1.0000
  Ba  Ba3       1.0  0.36549919520169255  0.6192022932804025  0.963010922894388  1.0000
  O   O2        1.0  0.8656433910846542  0.11926038465223765  0.46309277495812057  1.0000
  O   O3        1.0  0.014661427918058412  0.4436218145791988  0.18887161260590402  1.0000
  Ba  Ba4       1.0  0.36552488429164204  0.6192067565659467  0.4629221152204292  1.0000
  O   O4        1.0  0.1901272558612749  0.7943783300576378  0.7371127622758519  1.0000
  O   O5        1.0  0.36572913116353883  0.11936678725122793  0.46300983409423757  1.0000
  O   O6        1.0  0.5410360042160106  0.4439876510496511  0.18889249494869673  1.0000
  O   O7        1.0  0.716437007392715  0.7945515169114131  0.73726161012001  1.0000
  O   O8        1.0  0.5412671816246365  0.9702551754863004  0.18875352419296398  1.0000
  O   O9        1.0  0.8656787214074354  0.619375710170391  0.4630311556507116  1.0000
