data_image0
_chemical_formula_structural       O2BaOTi
_chemical_formula_sum              "O3 Ba1 Ti1"
_cell_length_a       4.105945835643095
_cell_length_b       4.10548216058174
_cell_length_c       4.104385852813721
_cell_angle_alpha    90.1515644128162
_cell_angle_beta     89.47788230048882
_cell_angle_gamma    90.19874736039245

_space_group_name_H-M_alt    "P 1"
_space_group_IT_number       1

loop_
  _space_group_symop_operation_xyz
  'x, y, z'

loop_
  _atom_site_type_symbol
  _atom_site_label
  _atom_site_symmetry_multiplicity
  _atom_site_fract_x
  _atom_site_fract_y
  _atom_site_fract_z
  _atom_site_occupancy
  O   O1        1.0  0.5795527344600132  0.7743784090251563  0.6386121554898386  1.0000
  O   O2        1.0  0.579633964946094  0.2600790920801722  0.12481124993825586  1.0000
  Ba  Ba1       1.0  0.06278068194694457  0.2907892259995495  0.6075077380232398  1.0000
  O   O3        1.0  0.09359249169696938  0.7743968970983082  0.1246656451357159  1.0000
  Ti  Ti1       1.0  0.5463143109981875  0.8071283606415873  0.09143828858455165  1.0000
