data_image0
_chemical_formula_structural       TiBaO2
_chemical_formula_sum              "Ti1 Ba1 O2"
_cell_length_a       3.285137501350507
_cell_length_b       3.2850812513959897
_cell_length_c       6.473161697387694
_cell_angle_alpha    75.30463938954908
_cell_angle_beta     75.30317712970341
_cell_angle_gamma    60.03459649972273

_space_group_name_H-M_alt    "P 1"
_space_group_IT_number       1

loop_
  _space_group_symop_operation_xyz
  'x, y, z'

loop_
  _atom_site_type_symbol
  _atom_site_label
  _atom_site_symmetry_multiplicity
  _atom_site_fract_x
  _atom_site_fract_y
  _atom_site_fract_z
  _atom_site_occupancy
  Ti  Ti1       1.0  0.5415486599483741  0.031962991817788694  0.11706814518591245  1.0000
  Ba  Ba1       1.0  0.7121673599312507  0.20245314630559427  0.6064074531135992  1.0000
  O   O1        1.0  0.1545066194507755  0.6448950598069165  0.27845301510386683  1.0000
  O   O2        1.0  0.9305943466705053  0.42098229327198605  0.9500526943182347  1.0000
