data_image0
_chemical_formula_structural       BaTi2BaO6
_chemical_formula_sum              "Ba2 Ti2 O6"
_cell_length_a       5.411084524324064
_cell_length_b       5.413921564327286
_cell_length_c       6.456312656402588
_cell_angle_alpha    65.42013263838977
_cell_angle_beta     65.422773514251
_cell_angle_gamma    60.11302852656195

_space_group_name_H-M_alt    "P 1"
_space_group_IT_number       1

loop_
  _space_group_symop_operation_xyz
  'x, y, z'

loop_
  _atom_site_type_symbol
  _atom_site_label
  _atom_site_symmetry_multiplicity
  _atom_site_fract_x
  _atom_site_fract_y
  _atom_site_fract_z
  _atom_site_occupancy
  Ba  Ba1       1.0  0.144858591643166  0.9152812599797212  0.7929992138383113  1.0000
  Ti  Ti1       1.0  0.6828301871890162  0.45323909101377413  0.17846239611666054  1.0000
  Ti  Ti2       1.0  0.3648875833095366  0.13520566684287671  0.13266387766572893  1.0000
  Ba  Ba2       1.0  0.9028249690108953  0.6731787460047178  0.5181791750645179  1.0000
  O   O1        1.0  0.08992941505742615  0.3697426200464156  0.9393228283852396  1.0000
  O   O2        1.0  0.9577886770825121  0.2185626173216806  0.3718205848113115  1.0000
  O   O3        1.0  0.599194250713906  0.8601710849502641  0.93934931371884  1.0000
  O   O4        1.0  0.44864044085502763  0.7282609570806782  0.37180519911717647  1.0000
  O   O5        1.0  0.4483734207029188  0.2195616425786863  0.37182211180709285  1.0000
  O   O6        1.0  0.5992151322856184  0.36900154925491785  0.9393031404775988  1.0000
