data_image0
_chemical_formula_structural       TiOTiBa3O3TiO6
_chemical_formula_sum              "Ti3 O10 Ba3"
_cell_length_a       6.359809303199242
_cell_length_b       5.481023896773782
_cell_length_c       8.633090019226074
_cell_angle_alpha    87.18876502861316
_cell_angle_beta     73.31313229255892
_cell_angle_gamma    85.05369530004754

_space_group_name_H-M_alt    "P 1"
_space_group_IT_number       1

loop_
  _space_group_symop_operation_xyz
  'x, y, z'

loop_
  _atom_site_type_symbol
  _atom_site_label
  _atom_site_symmetry_multiplicity
  _atom_site_fract_x
  _atom_site_fract_y
  _atom_site_fract_z
  _atom_site_occupancy
  Ti  Ti1       1.0  0.975720492173254  0.9006866235017978  0.2448186438545034  1.0000
  O   O1        1.0  0.7444349604250993  0.7347139094141591  0.3407728413300213  1.0000
  Ti  Ti2       1.0  0.2568326546590424  0.030239565908021952  0.5863422817554788  1.0000
  Ba  Ba1       1.0  0.17823552476350493  0.4557542490359345  0.8908923115626122  1.0000
  Ba  Ba2       1.0  0.5093700865875532  0.47583188820026934  0.21906723426753252  1.0000
  Ba  Ba3       1.0  0.7394727983043596  0.5234849824550678  0.6203679289664287  1.0000
  O   O2        1.0  0.4325755210032926  0.2764155937919335  0.5361781055059187  1.0000
  O   O3        1.0  0.9921498491250027  0.1511957896031419  0.7380300687379503  1.0000
  O   O4        1.0  0.7721637596474817  0.7058812220462598  0.9140328723194808  1.0000
  Ti  Ti3       1.0  0.7797351762630812  0.030033839210290326  0.9228538174503341  1.0000
  O   O5        1.0  0.37151938497782666  0.797361052711737  0.6908593907048481  1.0000
  O   O6        1.0  0.5333649553269493  0.2167527826826345  0.9397800966440018  1.0000
  O   O7        1.0  0.8778391051293525  0.12485757297569482  0.09790273597034403  1.0000
  O   O8        1.0  0.13231711451769604  0.8506501475152959  0.43903393330616924  1.0000
  O   O9        1.0  0.09557253749878947  0.11060229499854918  0.3810290358005254  1.0000
  O   O10       1.0  0.18338699181675577  0.6981625964041759  0.1290599419298116  1.0000
