data_image0
_chemical_formula_structural       OBaOTiBa2Ti2OBaO8TiO
_chemical_formula_sum              "O12 Ba4 Ti4"
_cell_length_a       3.7172184225475187
_cell_length_b       6.4069195184012715
_cell_length_c       13.525617599487306
_cell_angle_alpha    91.68748257742281
_cell_angle_beta     89.93478785461214
_cell_angle_gamma    89.99468178720116

_space_group_name_H-M_alt    "P 1"
_space_group_IT_number       1

loop_
  _space_group_symop_operation_xyz
  'x, y, z'

loop_
  _atom_site_type_symbol
  _atom_site_label
  _atom_site_symmetry_multiplicity
  _atom_site_fract_x
  _atom_site_fract_y
  _atom_site_fract_z
  _atom_site_occupancy
  O   O1        1.0  0.4495996510076699  0.21582029756481505  0.5100073856214643  1.0000
  Ba  Ba1       1.0  0.9487905359794185  0.44058776759584534  0.8354812486214649  1.0000
  O   O2        1.0  0.4495127922589241  0.6598468260861372  0.5140191931286896  1.0000
  Ti  Ti1       1.0  0.4497925623943285  0.9589607388704571  0.8248305889756137  1.0000
  Ba  Ba2       1.0  0.9482234055371112  0.0902757983763135  0.07651700954858216  1.0000
  Ba  Ba3       1.0  0.9492038751324898  0.9317206468870164  0.5909516921609532  1.0000
  Ti  Ti2       1.0  0.44945356113317325  0.44123392738897615  0.5934489290715055  1.0000
  Ti  Ti3       1.0  0.4484243858694465  0.8047136969925903  0.2707557703857376  1.0000
  O   O3        1.0  0.44944262968832044  0.7188953958602818  0.7545304429684834  1.0000
  Ba  Ba4       1.0  0.9495866361019218  0.3354769416538861  0.36198780806230435  1.0000
  O   O4        1.0  0.9496098553855898  0.9694366436529152  0.8745538955705966  1.0000
  O   O5        1.0  0.4483005425624373  0.31435745668821297  0.9693399215466785  1.0000
  O   O6        1.0  0.9483023098229972  0.7266698687100579  0.3019818148159778  1.0000
  O   O7        1.0  0.4474379226191511  0.40080839168384175  0.17657338610419698  1.0000
  O   O8        1.0  0.9494361283718435  0.44518151307303644  0.6350851630118322  1.0000
  O   O9        1.0  0.45064093727229354  0.15303367049132627  0.7339019990796968  1.0000
  O   O10       1.0  0.4480512910004236  0.8326020107353586  0.13656605950293713  1.0000
  O   O11       1.0  0.4492643772487122  0.06752782691988601  0.30687749365108113  1.0000
  Ti  Ti4       1.0  0.44784609088038446  0.5427100380188087  0.06549004469204145  1.0000
  O   O12       1.0  0.9480489382520004  0.6063767249430267  0.02943345436527977  1.0000
