data_image0
_chemical_formula_structural       BaO3BaOBaTiO
_chemical_formula_sum              "Ba3 O5 Ti1"
_cell_length_a       3.971884153587929
_cell_length_b       6.191342179863485
_cell_length_c       7.315186977386475
_cell_angle_alpha    115.03888218683741
_cell_angle_beta     105.7711395219368
_cell_angle_gamma    89.98216855585865

_space_group_name_H-M_alt    "P 1"
_space_group_IT_number       1

loop_
  _space_group_symop_operation_xyz
  'x, y, z'

loop_
  _atom_site_type_symbol
  _atom_site_label
  _atom_site_symmetry_multiplicity
  _atom_site_fract_x
  _atom_site_fract_y
  _atom_site_fract_z
  _atom_site_occupancy
  Ba  Ba1       1.0  0.4018152691177857  0.20544399593299684  0.7660262427282849  1.0000
  O   O1        1.0  0.2290387764952744  0.30494329295247524  0.42036555706329204  1.0000
  O   O2        1.0  0.9972437918426801  0.07306606411240048  0.9567599075711152  1.0000
  O   O3        1.0  0.9971901577236598  0.5285507746761707  0.9565630866663225  1.0000
  Ba  Ba2       1.0  0.8243362318996668  0.6279207997667843  0.610884036952045  1.0000
  O   O4        1.0  0.6131140685704286  0.41667661688365776  0.1885243633588198  1.0000
  Ba  Ba3       1.0  0.6131880800432198  0.9166256181626109  0.18848137398436443  1.0000
  Ti  Ti1       1.0  0.11325848651039039  0.4167424455120604  0.1885792537645646  1.0000
  O   O5        1.0  0.22891108483657457  0.7604808968815885  0.4200203937811878  1.0000
