data_image0
_chemical_formula_structural       O2TiBa2O2
_chemical_formula_sum              "O4 Ti1 Ba2"
_cell_length_a       4.03267697394676
_cell_length_b       4.034938216051366
_cell_length_c       7.306811809539795
_cell_angle_alpha    106.01592070417608
_cell_angle_beta     106.02139307559575
_cell_angle_gamma    89.98968897283558

_space_group_name_H-M_alt    "P 1"
_space_group_IT_number       1

loop_
  _space_group_symop_operation_xyz
  'x, y, z'

loop_
  _atom_site_type_symbol
  _atom_site_label
  _atom_site_symmetry_multiplicity
  _atom_site_fract_x
  _atom_site_fract_y
  _atom_site_fract_z
  _atom_site_occupancy
  O   O1        1.0  0.7336790283329941  0.854990464427106  0.7601166466771507  1.0000
  O   O2        1.0  0.43785369290135295  0.559127474915938  0.1686201823904219  1.0000
  Ti  Ti1       1.0  0.5858851684940805  0.706998271781946  0.46431982613585543  1.0000
  Ba  Ba1       1.0  0.22976736015614826  0.3509634693673278  0.7522682324382737  1.0000
  Ba  Ba2       1.0  0.9418159477586046  0.0630998336611937  0.1764794918787844  1.0000
  O   O3        1.0  0.5856680292906076  0.20699959923766031  0.4643673428772711  1.0000
  O   O4        1.0  0.08567765743794009  0.7070026755886949  0.4644316863013933  1.0000
