data_image0
_chemical_formula_structural       OBaTiO
_chemical_formula_sum              "O2 Ba1 Ti1"
_cell_length_a       3.32542430382251
_cell_length_b       3.327739780467089
_cell_length_c       6.284080982208253
_cell_angle_alpha    74.67586539225994
_cell_angle_beta     74.66777734091966
_cell_angle_gamma    59.97841842343194

_space_group_name_H-M_alt    "P 1"
_space_group_IT_number       1

loop_
  _space_group_symop_operation_xyz
  'x, y, z'

loop_
  _atom_site_type_symbol
  _atom_site_label
  _atom_site_symmetry_multiplicity
  _atom_site_fract_x
  _atom_site_fract_y
  _atom_site_fract_z
  _atom_site_occupancy
  O   O1        1.0  0.3923155334292038  0.24063761916997758  0.8697706161950519  1.0000
  Ba  Ba1       1.0  0.17050700145607398  0.01882498086494649  0.5354936009045856  1.0000
  Ti  Ti1       1.0  0.6703329630295983  0.5186924750209414  0.03549853730353743  1.0000
  O   O2        1.0  0.9482701340346478  0.7969053513183787  0.20120372416870363  1.0000
