data_image0
_chemical_formula_structural       Ba2TiOTiO2TiO4
_chemical_formula_sum              "Ba2 Ti3 O7"
_cell_length_a       5.627675578580364
_cell_length_b       5.577713884110213
_cell_length_c       7.466500759124756
_cell_angle_alpha    104.64840153735025
_cell_angle_beta     98.67003301305259
_cell_angle_gamma    92.0670980033109

_space_group_name_H-M_alt    "P 1"
_space_group_IT_number       1

loop_
  _space_group_symop_operation_xyz
  'x, y, z'

loop_
  _atom_site_type_symbol
  _atom_site_label
  _atom_site_symmetry_multiplicity
  _atom_site_fract_x
  _atom_site_fract_y
  _atom_site_fract_z
  _atom_site_occupancy
  Ba  Ba1       1.0  0.8161753259636256  0.6569317514293703  0.3283967436574465  1.0000
  Ba  Ba2       1.0  0.2842903247474075  0.3991196535207374  0.8877257335513978  1.0000
  Ti  Ti1       1.0  0.23705232744649865  0.151822730020453  0.28478624221847115  1.0000
  O   O1        1.0  0.2936168777356054  0.45152433769521066  0.24715039200902042  1.0000
  Ti  Ti2       1.0  0.7454069396246334  0.2337993521176951  0.5906721956979057  1.0000
  O   O2        1.0  0.9952419764390079  0.16507373654530072  0.42918478489466416  1.0000
  O   O3        1.0  0.6327199317961626  0.7313943732612022  0.006801882189106712  1.0000
  Ti  Ti3       1.0  0.8205152671242507  0.8561313644952625  0.8788360209332706  1.0000
  O   O4        1.0  0.12074899310340555  0.9493159033678048  0.03857268251057943  1.0000
  O   O5        1.0  0.505236947231243  0.03571216255726358  0.40158159272830873  1.0000
  O   O6        1.0  0.6944628709585136  0.1354215396718575  0.8079629486444275  1.0000
  O   O7        1.0  0.8789769623216654  0.583901468175781  0.6889508804448392  1.0000
