data_image0
_chemical_formula_structural       OBaTiO
_chemical_formula_sum              "O2 Ba1 Ti1"
_cell_length_a       3.3262018286921373
_cell_length_b       3.327364471222737
_cell_length_c       6.290366172790527
_cell_angle_alpha    74.7152669035516
_cell_angle_beta     74.69079543408226
_cell_angle_gamma    60.01698962385641

_space_group_name_H-M_alt    "P 1"
_space_group_IT_number       1

loop_
  _space_group_symop_operation_xyz
  'x, y, z'

loop_
  _atom_site_type_symbol
  _atom_site_label
  _atom_site_symmetry_multiplicity
  _atom_site_fract_x
  _atom_site_fract_y
  _atom_site_fract_z
  _atom_site_occupancy
  O   O1        1.0  0.13936048441470328  0.5111797677433199  0.21606201945689413  1.0000
  Ba  Ba1       1.0  0.36125491739936433  0.7330845508697235  0.5509433906750293  1.0000
  Ti  Ti1       1.0  0.8609208196786683  0.23270013588309968  0.05120574417791691  1.0000
  O   O2        1.0  0.5827377485377269  0.9545444837240833  0.8859603368052059  1.0000
