data_image0
_chemical_formula_structural       BaO3TiOBaTi2OBaOTiO3Ba
_chemical_formula_sum              "Ba4 O9 Ti4"
_cell_length_a       5.862477241023514
_cell_length_b       7.097680971099624
_cell_length_c       7.097956180572509
_cell_angle_alpha    112.39016856075523
_cell_angle_beta     89.42094590139004
_cell_angle_gamma    90.63341376380473

_space_group_name_H-M_alt    "P 1"
_space_group_IT_number       1

loop_
  _space_group_symop_operation_xyz
  'x, y, z'

loop_
  _atom_site_type_symbol
  _atom_site_label
  _atom_site_symmetry_multiplicity
  _atom_site_fract_x
  _atom_site_fract_y
  _atom_site_fract_z
  _atom_site_occupancy
  Ba  Ba1       1.0  0.21694842303186146  0.6911623275259734  0.7763368932403039  1.0000
  O   O1        1.0  0.47524531763255373  0.31894246821996747  0.6466065670931243  1.0000
  O   O2        1.0  0.9685282609261724  0.5629965918670512  0.40255439164572204  1.0000
  O   O3        1.0  0.9691163268117651  0.31297907680321174  0.652593366030473  1.0000
  Ti  Ti1       1.0  0.22457200388795978  0.21183415299337452  0.7537511519323168  1.0000
  O   O4        1.0  0.22076626793347098  0.42556291731155105  0.024416574881408352  1.0000
  Ba  Ba2       1.0  0.7202116870386489  0.43482310423687587  0.028792724035525945  1.0000
  Ti  Ti2       1.0  0.7125141388562503  0.914130069922979  0.05139465887158834  1.0000
  Ti  Ti3       1.0  0.19876945134139523  0.6930696339390351  0.2725231379127449  1.0000
  O   O5        1.0  0.4618911253265557  0.8069853671366698  0.1585631334070263  1.0000
  Ba  Ba3       1.0  0.7202213002930348  0.9366994608274186  0.5306768624165267  1.0000
  O   O6        1.0  0.968070583776328  0.8130520135216481  0.152481196115104  1.0000
  Ti  Ti4       1.0  0.7383168381947467  0.43289817617714565  0.5326139487278959  1.0000
  O   O7        1.0  0.22082233717655728  0.941195406170704  0.5399680845141359  1.0000
  O   O8        1.0  0.7163577996502926  0.7004124293456265  0.7807153968193793  1.0000
  O   O9        1.0  0.7162519442193029  0.1848060786962743  0.26512970141085274  1.0000
  Ba  Ba4       1.0  0.21692378492949452  0.18928191359904653  0.27445605395353534  1.0000
