data_image0
_chemical_formula_structural       OBa2OTiO2
_chemical_formula_sum              "O4 Ba2 Ti1"
_cell_length_a       4.045444146082327
_cell_length_b       4.045712433685267
_cell_length_c       7.3202433586120605
_cell_angle_alpha    105.94483934215502
_cell_angle_beta     106.00804539525608
_cell_angle_gamma    89.9857888534362

_space_group_name_H-M_alt    "P 1"
_space_group_IT_number       1

loop_
  _space_group_symop_operation_xyz
  'x, y, z'

loop_
  _atom_site_type_symbol
  _atom_site_label
  _atom_site_symmetry_multiplicity
  _atom_site_fract_x
  _atom_site_fract_y
  _atom_site_fract_z
  _atom_site_occupancy
  O   O1        1.0  0.42928992607882566  0.29759072618861  0.7309411687941528  1.0000
  Ba  Ba1       1.0  0.22029950170897986  0.08851460307943478  0.3132690297599997  1.0000
  Ba  Ba2       1.0  0.933246287531604  0.8017663318658904  0.7388541197441219  1.0000
  O   O2        1.0  0.07686884156197314  0.4450731877187356  0.02609825223850755  1.0000
  Ti  Ti1       1.0  0.5767641261964195  0.44497978260218757  0.02607041690174096  1.0000
  O   O3        1.0  0.5767696411874265  0.9451968088629791  0.026057927088287178  1.0000
  O   O4        1.0  0.7245067478289435  0.5929517059613058  0.32138007152565573  1.0000
