data_image0
_chemical_formula_structural       OBaO2BaTiO4TiO3Ba2
_chemical_formula_sum              "O10 Ba4 Ti2"
_cell_length_a       4.024289757396009
_cell_length_b       4.015262430231472
_cell_length_c       17.190898895263672
_cell_angle_alpha    89.91332056815295
_cell_angle_beta     89.88734536377636
_cell_angle_gamma    89.85089949438712

_space_group_name_H-M_alt    "P 1"
_space_group_IT_number       1

loop_
  _space_group_symop_operation_xyz
  'x, y, z'

loop_
  _atom_site_type_symbol
  _atom_site_label
  _atom_site_symmetry_multiplicity
  _atom_site_fract_x
  _atom_site_fract_y
  _atom_site_fract_z
  _atom_site_occupancy
  O   O1        1.0  0.33756198918662533  0.8589817507048212  0.8787934784772945  1.0000
  Ba  Ba1       1.0  0.835537560675507  0.8635481674495387  0.7710508074972455  1.0000
  O   O2        1.0  0.3274645214926496  0.15706564762893638  0.681616122454402  1.0000
  O   O3        1.0  0.3318798520516776  0.7449189876846117  0.5648713632281518  1.0000
  Ba  Ba2       1.0  0.8395644815700785  0.8244822200541836  0.052868143008478315  1.0000
  Ti  Ti1       1.0  0.333821794381829  0.33556124458958153  0.9029065576691827  1.0000
  O   O4        1.0  0.839097003439185  0.3570382090431634  0.8816556354342262  1.0000
  O   O5        1.0  0.3402206850667838  0.816457430386551  0.15732427590126774  1.0000
  O   O6        1.0  0.3364322146485682  0.3365432450366376  0.004490986565009779  1.0000
  O   O7        1.0  0.8410475645014738  0.32318750460723444  0.15767468826091555  1.0000
  Ti  Ti2       1.0  0.3607843986966618  0.2883882987234222  0.5625590341646536  1.0000
  O   O8        1.0  0.3417085488675193  0.39604903129593827  0.7420733010438554  1.0000
  O   O9        1.0  0.3348946473489616  0.256820475951817  0.4507012214744142  1.0000
  O   O10       1.0  0.823766846691536  0.2609617068692719  0.5626696449865024  1.0000
  Ba  Ba3       1.0  0.3405081526733071  0.3152670162343711  0.23827984779055264  1.0000
  Ba  Ba4       1.0  0.8492975255886632  0.7766298816070547  0.4587090047339067  1.0000
