data_image0
_chemical_formula_structural       BaOBa2TiO6Ti
_chemical_formula_sum              "Ba3 O7 Ti2"
_cell_length_a       4.078421785073391
_cell_length_b       4.081641410442665
_cell_length_c       11.067290306091309
_cell_angle_alpha    100.577090040019
_cell_angle_beta     100.50314057932854
_cell_angle_gamma    90.28639214503661

_space_group_name_H-M_alt    "P 1"
_space_group_IT_number       1

loop_
  _space_group_symop_operation_xyz
  'x, y, z'

loop_
  _atom_site_type_symbol
  _atom_site_label
  _atom_site_symmetry_multiplicity
  _atom_site_fract_x
  _atom_site_fract_y
  _atom_site_fract_z
  _atom_site_occupancy
  Ba  Ba1       1.0  0.35879919921792175  0.09551218117479326  0.45114122725333383  1.0000
  O   O1        1.0  0.758616239596794  0.030963091000423815  0.273880281103103  1.0000
  Ba  Ba2       1.0  0.17675727398967703  0.9120793046129241  0.0851346235574623  1.0000
  Ba  Ba3       1.0  0.993505885742434  0.7297764993226538  0.7190375565636047  1.0000
  Ti  Ti1       1.0  0.5958069000920617  0.30382537354015354  0.895610765858845  1.0000
  O   O2        1.0  0.058450755345183285  0.33045819533934634  0.8963334018602656  1.0000
  O   O3        1.0  0.8462267658508185  0.6143544393025502  0.4573443909489345  1.0000
  O   O4        1.0  0.47529761074899857  0.24244645870183987  0.7128845252762477  1.0000
  O   O5        1.0  0.6585273510921736  0.4307237504694721  0.08520045574186502  1.0000
  O   O6        1.0  0.24675306474414951  0.5188818983460084  0.2738947813354125  1.0000
  O   O7        1.0  0.5702822070808742  0.8424663993880652  0.8963156807986066  1.0000
  Ti  Ti2       1.0  0.7848039310061349  0.4930999710995081  0.2746372561601092  1.0000
