data_image0
_chemical_formula_structural       OBaOBaOBaTiBaO2BaTiO4
_chemical_formula_sum              "O9 Ba5 Ti2"
_cell_length_a       4.088432394117221
_cell_length_b       4.085404703312303
_cell_length_c       17.234228134155273
_cell_angle_alpha    96.81304140217817
_cell_angle_beta     96.79858819232903
_cell_angle_gamma    90.10903283489706

_space_group_name_H-M_alt    "P 1"
_space_group_IT_number       1

loop_
  _space_group_symop_operation_xyz
  'x, y, z'

loop_
  _atom_site_type_symbol
  _atom_site_label
  _atom_site_symmetry_multiplicity
  _atom_site_fract_x
  _atom_site_fract_y
  _atom_site_fract_z
  _atom_site_occupancy
  O   O1        1.0  0.6421025262912491  0.8197639966543646  0.14576905388956507  1.0000
  Ba  Ba1       1.0  0.41231801081793307  0.04540667485508665  0.6435636142870148  1.0000
  O   O2        1.0  0.5887366528803893  0.24175117604339924  0.02755564585243579  1.0000
  Ba  Ba2       1.0  0.10172263348372294  0.7353006746382994  0.03387683746397936  1.0000
  O   O3        1.0  0.2712273030399832  0.4026066124013949  0.37001166655574685  1.0000
  Ba  Ba3       1.0  0.8104633265821237  0.44197322570985537  0.4486035373413543  1.0000
  Ti  Ti1       1.0  0.9742435213542826  0.6086947905821722  0.7537506479116373  1.0000
  Ba  Ba4       1.0  0.5199439801161317  0.15503540563014218  0.8656914497412674  1.0000
  O   O4        1.0  0.1284324539357299  0.3064187862021009  0.14576410988292382  1.0000
  O   O5        1.0  0.9573666329389565  0.08292538166070296  0.7543001528851796  1.0000
  Ba  Ba5       1.0  0.22997898125169602  0.8608740691483048  0.2877628280267656  1.0000
  Ti  Ti2       1.0  0.6651953125864787  0.27319610090205987  0.13508471651689666  1.0000
  O   O6        1.0  0.4489690907332926  0.5907096752141894  0.754280114339268  1.0000
  O   O7        1.0  0.8942622261448209  0.5287662875055666  0.6397706891654655  1.0000
  O   O8        1.0  0.011498161543393448  0.6458719172629712  0.872426956922329  1.0000
  O   O9        1.0  0.7705433793121558  0.9024676577099806  0.36989444812817884  1.0000
