data_image0
_chemical_formula_structural       TiBa2OBaO3TiO5
_chemical_formula_sum              "Ti2 Ba3 O9"
_cell_length_a       5.937582030262096
_cell_length_b       5.944663966996856
_cell_length_c       7.941683292388916
_cell_angle_alpha    68.06053873710262
_cell_angle_beta     68.12935225684332
_cell_angle_gamma    60.13096591426749

_space_group_name_H-M_alt    "P 1"
_space_group_IT_number       1

loop_
  _space_group_symop_operation_xyz
  'x, y, z'

loop_
  _atom_site_type_symbol
  _atom_site_label
  _atom_site_symmetry_multiplicity
  _atom_site_fract_x
  _atom_site_fract_y
  _atom_site_fract_z
  _atom_site_occupancy
  Ti  Ti1       1.0  0.1888368402545372  0.5798854692127364  0.39225847691914234  1.0000
  Ba  Ba1       1.0  0.02009849784001829  0.41109148854132876  0.8992343268810156  1.0000
  Ba  Ba2       1.0  0.7889445182469169  0.17986423126276627  0.5923030130585122  1.0000
  O   O1        1.0  0.10179416380196296  0.49268770976101317  0.20460465605957637  1.0000
  Ba  Ba3       1.0  0.5828609776980012  0.9737988917741913  0.21115855883779427  1.0000
  O   O2        1.0  0.2996824972785701  0.6902921123006446  0.5274086302397725  1.0000
  O   O3        1.0  0.5212290162591082  0.9120445524743735  0.8917093984815503  1.0000
  O   O4        1.0  0.29865302559836954  0.22541712676825407  0.5285271825728686  1.0000
  Ti  Ti2       1.0  0.3232861869514088  0.7139757022478374  0.9901372522433207  1.0000
  O   O5        1.0  0.8346125610820943  0.6895349252227841  0.5288574045986223  1.0000
  O   O6        1.0  0.520597852454409  0.41663222378051484  0.8919528511913403  1.0000
  O   O7        1.0  0.02562929946035148  0.9113018018049963  0.8916449076975644  1.0000
  O   O8        1.0  0.5507454464652318  0.49370715728948517  0.2042894934143567  1.0000
  O   O9        1.0  0.10211859958165712  0.9414397235620899  0.20388818945395215  1.0000
