data_image0
_chemical_formula_structural       BaTi2O2TiOTiO4
_chemical_formula_sum              "Ba1 Ti4 O7"
_cell_length_a       4.117240001140749
_cell_length_b       4.12022475721952
_cell_length_c       8.76205825805664
_cell_angle_alpha    103.41029940988722
_cell_angle_beta     103.41705532069089
_cell_angle_gamma    89.84408312392014

_space_group_name_H-M_alt    "P 1"
_space_group_IT_number       1

loop_
  _space_group_symop_operation_xyz
  'x, y, z'

loop_
  _atom_site_type_symbol
  _atom_site_label
  _atom_site_symmetry_multiplicity
  _atom_site_fract_x
  _atom_site_fract_y
  _atom_site_fract_z
  _atom_site_occupancy
  Ba  Ba1       1.0  0.17959752344717908  0.38131605963637766  0.8507099748141942  1.0000
  Ti  Ti1       1.0  0.4293463200821755  0.1311238925327701  0.3509907544090501  1.0000
  Ti  Ti2       1.0  0.796625096013677  0.9984190432881356  0.08660437901570184  1.0000
  O   O1        1.0  0.3042335237057836  0.0064197673987032135  0.10071076085942081  1.0000
  O   O2        1.0  0.6795315147105347  0.8813534520658396  0.8508587127381472  1.0000
  Ti  Ti3       1.0  0.9290687170455983  0.6311953882297815  0.3507229443109193  1.0000
  O   O3        1.0  0.9270152374086029  0.12901519373518086  0.34631284467452955  1.0000
  Ti  Ti4       1.0  0.562247278884867  0.7640339478912646  0.6146141103952101  1.0000
  O   O4        1.0  0.43114485466389624  0.633085768674011  0.3549515686159956  1.0000
  O   O5        1.0  0.8043977862177483  0.5061053175761189  0.10058538766976811  1.0000
  O   O6        1.0  0.5544823911462382  0.256491244562779  0.6011275510485563  1.0000
  O   O7        1.0  0.05461716957191608  0.756203565206562  0.6009839688827204  1.0000
