data_image0
_chemical_formula_structural       Ti2Ba2O4
_chemical_formula_sum              "Ti2 Ba2 O4"
_cell_length_a       3.303521633423844
_cell_length_b       3.3054621445137222
_cell_length_c       12.105454444885254
_cell_angle_alpha    90.0227675256137
_cell_angle_beta     90.0007401649179
_cell_angle_gamma    119.98912959985394

_space_group_name_H-M_alt    "P 1"
_space_group_IT_number       1

loop_
  _space_group_symop_operation_xyz
  'x, y, z'

loop_
  _atom_site_type_symbol
  _atom_site_label
  _atom_site_symmetry_multiplicity
  _atom_site_fract_x
  _atom_site_fract_y
  _atom_site_fract_z
  _atom_site_occupancy
  Ti  Ti1       1.0  0.6099320366545071  0.3795104974386457  0.4430530563989012  1.0000
  Ti  Ti2       1.0  0.6102095748185877  0.3800523092702514  0.942621681710663  1.0000
  Ba  Ba1       1.0  0.9435774359567827  0.04641785614421902  0.19285367948163376  1.0000
  Ba  Ba2       1.0  0.2767502787752422  0.7130795004453306  0.6929496563603713  1.0000
  O   O1        1.0  0.2766421630210841  0.7128107359328643  0.36057923706917916  1.0000
  O   O2        1.0  0.2769264966876195  0.7134242941008779  0.025222152426939187  1.0000
  O   O3        1.0  0.9433207352038191  0.04626816740422469  0.5257528284691748  1.0000
  O   O4        1.0  0.9434957326318457  0.04663045335416381  0.859977226484526  1.0000
