data_image0
_chemical_formula_structural       OBa2TiO2
_chemical_formula_sum              "O3 Ba2 Ti1"
_cell_length_a       3.2658447664219237
_cell_length_b       3.8656877956721463
_cell_length_c       9.81698226928711
_cell_angle_alpha    101.38118002874332
_cell_angle_beta     99.43221318516943
_cell_angle_gamma    89.96629568346812

_space_group_name_H-M_alt    "P 1"
_space_group_IT_number       1

loop_
  _space_group_symop_operation_xyz
  'x, y, z'

loop_
  _atom_site_type_symbol
  _atom_site_label
  _atom_site_symmetry_multiplicity
  _atom_site_fract_x
  _atom_site_fract_y
  _atom_site_fract_z
  _atom_site_occupancy
  O   O1        1.0  0.2808408862407073  0.30194281910771975  0.6696576195959575  1.0000
  Ba  Ba1       1.0  0.5671970338151371  0.5857590718994999  0.23777649205031626  1.0000
  Ba  Ba2       1.0  0.8403655392392639  0.8618399255707354  0.7893665190108253  1.0000
  Ti  Ti1       1.0  0.7037119432629594  0.2237912722352286  0.5135636209979447  1.0000
  O   O2        1.0  0.7036477392138478  0.723787092725999  0.513556466693938  1.0000
  O   O3        1.0  0.1266532718734845  0.1456530303323457  0.35746878324982984  1.0000
