data_image0
_chemical_formula_structural       BaO3BaO3Ti
_chemical_formula_sum              "Ba2 O6 Ti1"
_cell_length_a       4.229175480013529
_cell_length_b       6.046815611752158
_cell_length_c       6.313429832458496
_cell_angle_alpha    118.47958933133654
_cell_angle_beta     99.72426606849918
_cell_angle_gamma    83.15124841346127

_space_group_name_H-M_alt    "P 1"
_space_group_IT_number       1

loop_
  _space_group_symop_operation_xyz
  'x, y, z'

loop_
  _atom_site_type_symbol
  _atom_site_label
  _atom_site_symmetry_multiplicity
  _atom_site_fract_x
  _atom_site_fract_y
  _atom_site_fract_z
  _atom_site_occupancy
  Ba  Ba1       1.0  0.2512753539955485  0.03851981892222989  0.5987035157322474  1.0000
  O   O1        1.0  0.6625133001764679  0.6379087299286017  0.3408669186483221  1.0000
  O   O2        1.0  0.15915060677891288  0.09622889297871506  0.040795836899861035  1.0000
  O   O3        1.0  0.6923538221393125  0.13546534841942667  0.37108571960130876  1.0000
  Ba  Ba2       1.0  0.7891778365499318  0.7093889367926741  0.9473133584908238  1.0000
  O   O4        1.0  0.25744845458486354  0.5262640585216842  0.5959964968952176  1.0000
  O   O5        1.0  0.35742461110623036  0.6065101456216934  0.1693836476939315  1.0000
  O   O6        1.0  0.844849442702545  0.14782978683225298  0.9207759398700426  1.0000
  Ti  Ti1       1.0  0.42672555166191667  0.36071469524208744  0.3153981561225166  1.0000
