data_image0
_chemical_formula_structural       Ba2TiO3TiO4
_chemical_formula_sum              "Ba2 Ti2 O7"
_cell_length_a       3.8548334161383595
_cell_length_b       3.855139772578488
_cell_length_c       10.90781307220459
_cell_angle_alpha    89.97032533253528
_cell_angle_beta     90.0413797902951
_cell_angle_gamma    89.95766899207635

_space_group_name_H-M_alt    "P 1"
_space_group_IT_number       1

loop_
  _space_group_symop_operation_xyz
  'x, y, z'

loop_
  _atom_site_type_symbol
  _atom_site_label
  _atom_site_symmetry_multiplicity
  _atom_site_fract_x
  _atom_site_fract_y
  _atom_site_fract_z
  _atom_site_occupancy
  Ba  Ba1       1.0  0.6025756215364864  0.9060432769244623  0.5533878002219975  1.0000
  Ba  Ba2       1.0  0.603328848415325  0.9069241351627763  0.05237830022569117  1.0000
  Ti  Ti1       1.0  0.10362965277172831  0.4066747493763706  0.2748533818094899  1.0000
  O   O1        1.0  0.10404514318951141  0.40662852618420015  0.437563683421392  1.0000
  O   O2        1.0  0.10292052799797288  0.9070144842952758  0.8599485681347073  1.0000
  O   O3        1.0  0.10366469822845364  0.9067152307082016  0.24454111452333085  1.0000
  Ti  Ti2       1.0  0.10293022310176173  0.40693705626093224  0.830077860505747  1.0000
  O   O4        1.0  0.6029772237658101  0.4070797149105474  0.859902333496052  1.0000
  O   O5        1.0  0.10325816093664626  0.40686094960323976  0.05208908436505383  1.0000
  O   O6        1.0  0.10268519113102165  0.407505168650528  0.6671889223529035  1.0000
  O   O7        1.0  0.6035973486368633  0.4066874198519168  0.24460597041046453  1.0000
