data_image0
_chemical_formula_structural       BaOBaO3TiBaO2
_chemical_formula_sum              "Ba3 O6 Ti1"
_cell_length_a       6.286464272088429
_cell_length_b       6.287142346275252
_cell_length_c       6.2875094413757315
_cell_angle_alpha    60.06351727890348
_cell_angle_beta     60.0652442241749
_cell_angle_gamma    60.09926746110209

_space_group_name_H-M_alt    "P 1"
_space_group_IT_number       1

loop_
  _space_group_symop_operation_xyz
  'x, y, z'

loop_
  _atom_site_type_symbol
  _atom_site_label
  _atom_site_symmetry_multiplicity
  _atom_site_fract_x
  _atom_site_fract_y
  _atom_site_fract_z
  _atom_site_occupancy
  Ba  Ba1       1.0  0.33150553244788095  0.07574377293659659  0.03433192268548763  1.0000
  O   O1        1.0  0.3606755546641456  0.1049933906833514  0.5049422130298199  1.0000
  Ba  Ba2       1.0  0.08145997514387752  0.8259162514396913  0.7840581729556209  1.0000
  O   O2        1.0  0.8023208750999408  0.5467157744703133  0.06362225287795517  1.0000
  O   O3        1.0  0.3609288235982751  0.5468759766547541  0.5047948605416891  1.0000
  O   O4        1.0  0.8020124369004231  0.10482699287370983  0.06353011954347636  1.0000
  Ti  Ti1       1.0  0.5813728421638926  0.32581103901618025  0.2840967387288307  1.0000
  Ba  Ba3       1.0  0.8313142804608922  0.5758859137400524  0.5338474138331409  1.0000
  O   O5        1.0  0.360487013869371  0.5465251832262721  0.06344449570742688  1.0000
  O   O6        1.0  0.8023970742895842  0.10530193243871379  0.5048298057599078  1.0000
