data_image0
_chemical_formula_structural       TiO2BaOBaO
_chemical_formula_sum              "Ti1 O4 Ba2"
_cell_length_a       4.041502865690057
_cell_length_b       4.044121798176221
_cell_length_c       7.311946392059325
_cell_angle_alpha    106.04772890787149
_cell_angle_beta     106.06742046108207
_cell_angle_gamma    89.99812463208148

_space_group_name_H-M_alt    "P 1"
_space_group_IT_number       1

loop_
  _space_group_symop_operation_xyz
  'x, y, z'

loop_
  _atom_site_type_symbol
  _atom_site_label
  _atom_site_symmetry_multiplicity
  _atom_site_fract_x
  _atom_site_fract_y
  _atom_site_fract_z
  _atom_site_occupancy
  Ti  Ti1       1.0  0.032571631619786066  0.14167644108150243  0.8409663258064336  1.0000
  O   O1        1.0  0.03284027033654652  0.641631884702432  0.8410011002848378  1.0000
  O   O2        1.0  0.5329731642908131  0.14168224795014095  0.8410540198948758  1.0000
  Ba  Ba1       1.0  0.676705640871247  0.7854963687086617  0.12861053408085601  1.0000
  O   O3        1.0  0.8850035490811097  0.9937634178300484  0.5455707014766487  1.0000
  Ba  Ba2       1.0  0.3888798702816778  0.497730215683507  0.5536574363270975  1.0000
  O   O4        1.0  0.18073727034569828  0.28957708208995014  0.13635205096597544  1.0000
