data_image0
_chemical_formula_structural       OTiO2BaTiO2BaO
_chemical_formula_sum              "O6 Ti2 Ba2"
_cell_length_a       5.624588461508606
_cell_length_b       5.627837138546738
_cell_length_c       5.880421161651611
_cell_angle_alpha    118.4879759345699
_cell_angle_beta     118.43215933923119
_cell_angle_gamma    89.9545278857852

_space_group_name_H-M_alt    "P 1"
_space_group_IT_number       1

loop_
  _space_group_symop_operation_xyz
  'x, y, z'

loop_
  _atom_site_type_symbol
  _atom_site_label
  _atom_site_symmetry_multiplicity
  _atom_site_fract_x
  _atom_site_fract_y
  _atom_site_fract_z
  _atom_site_occupancy
  O   O1        1.0  0.14377133464451192  0.5588407416968988  0.2945961934130699  1.0000
  Ti  Ti1       1.0  0.36565843831323525  0.7808944635438432  0.23888394489985784  1.0000
  O   O2        1.0  0.1582492216935323  0.5734677323117755  0.8229375684920718  1.0000
  O   O3        1.0  0.644138403388882  0.059151348619014124  0.2950007607875953  1.0000
  Ba  Ba1       1.0  0.6244175725599062  0.5394950363312324  0.7561289756005558  1.0000
  Ti  Ti2       1.0  0.8655139928942216  0.2806246048654425  0.238532463775693  1.0000
  O   O4        1.0  0.6580011968201604  0.07281049586140706  0.8224505498581829  1.0000
  O   O5        1.0  0.644091785906529  0.559007003439294  0.29493436331508993  1.0000
  Ba  Ba2       1.0  0.12441908239953126  0.039559619575245765  0.7561314567769768  1.0000
  O   O6        1.0  0.14415372609629062  0.05930868781752959  0.2952316553206055  1.0000
