data_image0
_chemical_formula_structural       BaTiOTiO2BaO2
_chemical_formula_sum              "Ba2 Ti2 O5"
_cell_length_a       4.02277137492894
_cell_length_b       4.021184921494201
_cell_length_c       8.241565704345703
_cell_angle_alpha    89.99938778746068
_cell_angle_beta     90.00517978800687
_cell_angle_gamma    90.01125865672132

_space_group_name_H-M_alt    "P 1"
_space_group_IT_number       1

loop_
  _space_group_symop_operation_xyz
  'x, y, z'

loop_
  _atom_site_type_symbol
  _atom_site_label
  _atom_site_symmetry_multiplicity
  _atom_site_fract_x
  _atom_site_fract_y
  _atom_site_fract_z
  _atom_site_occupancy
  Ba  Ba1       1.0  0.1808877769216927  0.6751013987047421  0.8133960011165189  1.0000
  Ti  Ti1       1.0  0.6807377413691861  0.17500205222519763  0.5776124794936799  1.0000
  O   O1        1.0  0.18084569096638173  0.17512215620877658  0.07377042937041478  1.0000
  Ti  Ti2       1.0  0.6808647365184288  0.17515841593615203  0.04928199538261127  1.0000
  O   O2        1.0  0.1806848971828106  0.17498915953720784  0.5532379081352713  1.0000
  O   O3        1.0  0.6807142557046924  0.6750236684866436  0.5531074307907914  1.0000
  Ba  Ba2       1.0  0.180696646603729  0.6750064772696132  0.31347339789151657  1.0000
  O   O4        1.0  0.6807863434830894  0.6750884527948111  0.07391628686116279  1.0000
  O   O5        1.0  0.6808175284842451  0.1750644811897099  0.8134782714285715  1.0000
