data_image0
_chemical_formula_structural       BaTiO4
_chemical_formula_sum              "Ba1 Ti1 O4"
_cell_length_a       3.9196560651632724
_cell_length_b       3.9244180356804126
_cell_length_c       5.464192867279053
_cell_angle_alpha    90.03608639144488
_cell_angle_beta     90.02108046912646
_cell_angle_gamma    89.97697110705741

_space_group_name_H-M_alt    "P 1"
_space_group_IT_number       1

loop_
  _space_group_symop_operation_xyz
  'x, y, z'

loop_
  _atom_site_type_symbol
  _atom_site_label
  _atom_site_symmetry_multiplicity
  _atom_site_fract_x
  _atom_site_fract_y
  _atom_site_fract_z
  _atom_site_occupancy
  Ba  Ba1       1.0  0.3940978118453466  0.3728114160113467  0.19432003993287728  1.0000
  Ti  Ti1       1.0  0.9182853654945305  0.8500232916921345  0.783139453364312  1.0000
  O   O1        1.0  0.8822726623539964  0.3191462557902697  0.8323173271854125  1.0000
  O   O2        1.0  0.37782764611935765  0.8300666043460218  0.8277081941144948  1.0000
  O   O3        1.0  0.8898298329830506  0.6961815484206237  0.4412043566553554  1.0000
  O   O4        1.0  0.8909780576545353  0.9121503339396695  0.22019941062053333  1.0000
