data_image0
_chemical_formula_structural       BaO5TiOTi
_chemical_formula_sum              "Ba1 O6 Ti2"
_cell_length_a       3.8831274782528684
_cell_length_b       3.886207597859462
_cell_length_c       8.354372024536133
_cell_angle_alpha    90.00540518427356
_cell_angle_beta     90.02119658219078
_cell_angle_gamma    89.97874695503762

_space_group_name_H-M_alt    "P 1"
_space_group_IT_number       1

loop_
  _space_group_symop_operation_xyz
  'x, y, z'

loop_
  _atom_site_type_symbol
  _atom_site_label
  _atom_site_symmetry_multiplicity
  _atom_site_fract_x
  _atom_site_fract_y
  _atom_site_fract_z
  _atom_site_occupancy
  Ba  Ba1       1.0  0.42633195846943367  0.6776566546222493  0.36630201527319856  1.0000
  O   O1        1.0  0.926162185818898  0.677629831539774  0.13065464873051094  1.0000
  O   O2        1.0  0.9262286678703487  0.17763706474764202  0.8729760481829423  1.0000
  O   O3        1.0  0.42619535648515183  0.1776225463043905  0.13080250320874315  1.0000
  O   O4        1.0  0.9263074987221488  0.17765022900674032  0.40810872922744446  1.0000
  O   O5        1.0  0.4263794706455524  0.17767741528973  0.6317078353180777  1.0000
  Ti  Ti1       1.0  0.9265322075154233  0.17768824282559617  0.640464536841568  1.0000
  O   O6        1.0  0.9264140844001649  0.677666560888795  0.6317663560158169  1.0000
  Ti  Ti2       1.0  0.9261998613363805  0.1776303942538423  0.08126755254788183  1.0000
