data_image0
_chemical_formula_structural       OBaOTiO
_chemical_formula_sum              "O3 Ba1 Ti1"
_cell_length_a       4.069997814259676
_cell_length_b       4.072924648344665
_cell_length_c       4.0743408203125
_cell_angle_alpha    89.86397247136131
_cell_angle_beta     89.88214758523128
_cell_angle_gamma    89.83947941039357

_space_group_name_H-M_alt    "P 1"
_space_group_IT_number       1

loop_
  _space_group_symop_operation_xyz
  'x, y, z'

loop_
  _atom_site_type_symbol
  _atom_site_label
  _atom_site_symmetry_multiplicity
  _atom_site_fract_x
  _atom_site_fract_y
  _atom_site_fract_z
  _atom_site_occupancy
  O   O1        1.0  0.2574064108861277  0.5943362820424714  0.7151102947673722  1.0000
  Ba  Ba1       1.0  0.7425299317177471  0.5678420666496599  0.20043122878626604  1.0000
  O   O2        1.0  0.2572911315733528  0.08277345102951918  0.22671336269256256  1.0000
  Ti  Ti1       1.0  0.22809756933868452  0.053157189195060676  0.6855334171470508  1.0000
  O   O3        1.0  0.7684217977705087  0.08316254185487258  0.7153343800775487  1.0000
