data_image0
_chemical_formula_structural       OBaTiBaO4
_chemical_formula_sum              "O5 Ba2 Ti1"
_cell_length_a       5.84016920038776
_cell_length_b       5.857671681343676
_cell_length_c       6.257552146911621
_cell_angle_alpha    61.050540816777605
_cell_angle_beta     61.2454483011484
_cell_angle_gamma    62.18076510646904

_space_group_name_H-M_alt    "P 1"
_space_group_IT_number       1

loop_
  _space_group_symop_operation_xyz
  'x, y, z'

loop_
  _atom_site_type_symbol
  _atom_site_label
  _atom_site_symmetry_multiplicity
  _atom_site_fract_x
  _atom_site_fract_y
  _atom_site_fract_z
  _atom_site_occupancy
  O   O1        1.0  0.6321148445853954  0.7275832147392096  0.3687341126188899  1.0000
  Ba  Ba1       1.0  0.6874220268187308  0.3230316589399233  0.2438344575708522  1.0000
  Ti  Ti1       1.0  0.9498511265736654  0.5851872096357621  0.43561035951843996  1.0000
  Ba  Ba2       1.0  0.1929413659973364  0.8270816077332268  0.7382872315379785  1.0000
  O   O2        1.0  0.09526995878926614  0.2683649269504013  0.3683563243223532  1.0000
  O   O3        1.0  0.7945795249486141  0.6833218864748206  0.766075669051161  1.0000
  O   O4        1.0  0.04641592293819753  0.43094573313458834  0.7670939732864732  1.0000
  O   O5        1.0  0.1587520014500427  0.7957748535893694  0.18688295495486815  1.0000
