data_image0
_chemical_formula_structural       O2TiOBa2OTiO2
_chemical_formula_sum              "O6 Ti2 Ba2"
_cell_length_a       5.646311504175119
_cell_length_b       5.649151157228673
_cell_length_c       5.859260559082031
_cell_angle_alpha    118.80712651800262
_cell_angle_beta     118.72437300997375
_cell_angle_gamma    89.97806121600598

_space_group_name_H-M_alt    "P 1"
_space_group_IT_number       1

loop_
  _space_group_symop_operation_xyz
  'x, y, z'

loop_
  _atom_site_type_symbol
  _atom_site_label
  _atom_site_symmetry_multiplicity
  _atom_site_fract_x
  _atom_site_fract_y
  _atom_site_fract_z
  _atom_site_occupancy
  O   O1        1.0  0.7621042178663074  0.10706493380585856  0.16188279620636375  1.0000
  O   O2        1.0  0.2626160982770765  0.10768721252484426  0.16258972650318693  1.0000
  Ti  Ti1       1.0  0.03860183892252924  0.8833629124092196  0.21504089247849734  1.0000
  O   O3        1.0  0.7629027250865904  0.6077405476847995  0.16296166059223985  1.0000
  Ba  Ba1       1.0  0.7800463880012067  0.12488865831371622  0.6976794764850509  1.0000
  Ba  Ba2       1.0  0.27989906757252864  0.6248018827279902  0.697518984543412  1.0000
  O   O4        1.0  0.26223059801880994  0.6072708928615149  0.1620149360312804  1.0000
  Ti  Ti2       1.0  0.5385635721264035  0.3833151748292661  0.2149903770858023  1.0000
  O   O5        1.0  0.24965437725584214  0.09477939235076432  0.6369518369288358  1.0000
  O   O6        1.0  0.7494876774747377  0.5945082152683299  0.6368770244310348  1.0000
