data_image0
_chemical_formula_structural       OTiO2Ba
_chemical_formula_sum              "O3 Ti1 Ba1"
_cell_length_a       3.999535685888623
_cell_length_b       4.099710551953983
_cell_length_c       4.095782279968262
_cell_angle_alpha    90.33411486563412
_cell_angle_beta     90.09178658488197
_cell_angle_gamma    89.98815895608253

_space_group_name_H-M_alt    "P 1"
_space_group_IT_number       1

loop_
  _space_group_symop_operation_xyz
  'x, y, z'

loop_
  _atom_site_type_symbol
  _atom_site_label
  _atom_site_symmetry_multiplicity
  _atom_site_fract_x
  _atom_site_fract_y
  _atom_site_fract_z
  _atom_site_occupancy
  O   O1        1.0  0.24628204587075136  0.33442053561029494  0.4318948936303916  1.0000
  Ti  Ti1       1.0  0.24338125744397934  0.3020957037472362  0.9788733621414725  1.0000
  O   O2        1.0  0.7473142618912433  0.33932479621852196  0.9428538024508392  1.0000
  O   O3        1.0  0.2464307462938706  0.8500947307963923  0.9467306692559109  1.0000
  Ba  Ba1       1.0  0.7449547537557943  0.8184360410922736  0.46243503186062773  1.0000
