data_image0
_chemical_formula_structural       Ba2O4Ti2O2
_chemical_formula_sum              "Ba2 O6 Ti2"
_cell_length_a       4.257749087932609
_cell_length_b       5.6527976218673075
_cell_length_c       5.6493353843688965
_cell_angle_alpha    90.04610628202911
_cell_angle_beta     90.00334929698008
_cell_angle_gamma    90.01603295812207

_space_group_name_H-M_alt    "P 1"
_space_group_IT_number       1

loop_
  _space_group_symop_operation_xyz
  'x, y, z'

loop_
  _atom_site_type_symbol
  _atom_site_label
  _atom_site_symmetry_multiplicity
  _atom_site_fract_x
  _atom_site_fract_y
  _atom_site_fract_z
  _atom_site_occupancy
  Ba  Ba1       1.0  0.8169951661549363  0.7629777629825438  0.6539345107448742  1.0000
  Ba  Ba2       1.0  0.8169973066551377  0.26297659424139713  0.15399722100777152  1.0000
  O   O1        1.0  0.34696866912879765  0.012826612150928611  0.9037081211910449  1.0000
  O   O2        1.0  0.8708722261745494  0.7628865773916428  0.15387704392636728  1.0000
  O   O3        1.0  0.8708819947611373  0.2628215866997635  0.6538554581970895  1.0000
  O   O4        1.0  0.3472832763528645  0.01257817860535106  0.4036313147101867  1.0000
  Ti  Ti1       1.0  0.2978532256221306  0.2632754113123537  0.6543162578322378  1.0000
  Ti  Ti2       1.0  0.29784957773534737  0.7633068648763502  0.1543062892630889  1.0000
  O   O5        1.0  0.34706094613127175  0.5127498893583977  0.4036183478526629  1.0000
  O   O6        1.0  0.3472763131160079  0.5126442877970433  0.9035558901078607  1.0000
