data_image0
_chemical_formula_structural       TiBaOTi2O3BaOBaO5
_chemical_formula_sum              "Ti3 Ba3 O10"
_cell_length_a       3.895917783865933
_cell_length_b       3.894712137479615
_cell_length_c       15.37661075592041
_cell_angle_alpha    89.98326170992858
_cell_angle_beta     89.98520831367892
_cell_angle_gamma    89.97118593516808

_space_group_name_H-M_alt    "P 1"
_space_group_IT_number       1

loop_
  _space_group_symop_operation_xyz
  'x, y, z'

loop_
  _atom_site_type_symbol
  _atom_site_label
  _atom_site_symmetry_multiplicity
  _atom_site_fract_x
  _atom_site_fract_y
  _atom_site_fract_z
  _atom_site_occupancy
  Ti  Ti1       1.0  0.30515229536258537  0.5627621038517252  0.14329111668672526  1.0000
  Ba  Ba1       1.0  0.8052757553234652  0.06274586417108088  0.9940283079230766  1.0000
  O   O1        1.0  0.30539193817056026  0.0628764233671959  0.8623487487581617  1.0000
  Ti  Ti2       1.0  0.3048033872465963  0.5625959372492618  0.4460061510722489  1.0000
  Ti  Ti3       1.0  0.305478262649354  0.5629280665941447  0.8408136734993766  1.0000
  O   O2        1.0  0.8051396411750555  0.5627145400216359  0.1353670111630011  1.0000
  O   O3        1.0  0.8048817193285994  0.5625553694071522  0.41930354433140177  1.0000
  O   O4        1.0  0.3051108452569869  0.06274635730617194  0.13525522470764376  1.0000
  Ba  Ba2       1.0  0.8050239330566046  0.0627120621172629  0.29137084351689824  1.0000
  O   O5        1.0  0.3044996120189465  0.5625875540072413  0.5606581435000073  1.0000
  Ba  Ba3       1.0  0.805202750385052  0.06141781649311034  0.6486484682670672  1.0000
  O   O6        1.0  0.30503660737391264  0.5627084117210918  0.264155616924773  1.0000
  O   O7        1.0  0.30577609193768013  0.5634317754305429  0.7253583134208762  1.0000
  O   O8        1.0  0.3052703991821227  0.5627751316715341  0.00697096474858272  1.0000
  O   O9        1.0  0.30491424353021274  0.06257518550140771  0.4193166162765438  1.0000
  O   O10       1.0  0.8054355419166296  0.5627966374162099  0.8624455258549525  1.0000
