data_image0
_chemical_formula_structural       BaOBaTiO2TiO2
_chemical_formula_sum              "Ba2 O5 Ti2"
_cell_length_a       4.082549021956384
_cell_length_b       5.96401024766259
_cell_length_c       6.439390182495116
_cell_angle_alpha    106.2409140147289
_cell_angle_beta     90.04672099791783
_cell_angle_gamma    109.98764381636664

_space_group_name_H-M_alt    "P 1"
_space_group_IT_number       1

loop_
  _space_group_symop_operation_xyz
  'x, y, z'

loop_
  _atom_site_type_symbol
  _atom_site_label
  _atom_site_symmetry_multiplicity
  _atom_site_fract_x
  _atom_site_fract_y
  _atom_site_fract_z
  _atom_site_occupancy
  Ba  Ba1       1.0  0.6558424400383527  0.7071312630195074  0.07442951753340002  1.0000
  O   O1        1.0  0.057517657530250635  0.5103467690093281  0.7468428492421713  1.0000
  Ba  Ba2       1.0  0.4592411666285559  0.31352243321337003  0.41911377166492153  1.0000
  Ti  Ti1       1.0  0.21539536911220095  0.8263527665227342  0.6541962344631126  1.0000
  O   O2        1.0  0.9069031399885941  0.20873698447673208  0.1309580449380181  1.0000
  O   O3        1.0  0.7149513730756629  0.8253978001090432  0.6888049105697186  1.0000
  Ti  Ti2       1.0  0.8996228359554649  0.1942784273414885  0.8393430794688733  1.0000
  O   O4        1.0  0.20822766434350537  0.8120158948060167  0.3625637694847141  1.0000
  O   O5        1.0  0.40009263367837133  0.1952686962561255  0.8047124050888547  1.0000
