data_image0
_chemical_formula_structural       TiOBa2O4
_chemical_formula_sum              "Ti1 O5 Ba2"
_cell_length_a       5.867999750261403
_cell_length_b       5.864465053975984
_cell_length_c       5.868607997894287
_cell_angle_alpha    95.34034960057828
_cell_angle_beta     116.95856072826497
_cell_angle_gamma    116.97899457990366

_space_group_name_H-M_alt    "P 1"
_space_group_IT_number       1

loop_
  _space_group_symop_operation_xyz
  'x, y, z'

loop_
  _atom_site_type_symbol
  _atom_site_label
  _atom_site_symmetry_multiplicity
  _atom_site_fract_x
  _atom_site_fract_y
  _atom_site_fract_z
  _atom_site_occupancy
  Ti  Ti1       1.0  0.8729796470804199  0.2991114843208985  0.5302776089845781  1.0000
  O   O1        1.0  0.8765777082560708  0.5788611384398153  0.3797949167512083  1.0000
  Ba  Ba1       1.0  0.374982762280076  0.06273018790023581  0.7941376035204823  1.0000
  Ba  Ba2       1.0  0.3750154998732945  0.5622119697823712  0.29471082779347674  1.0000
  O   O2        1.0  0.873948374483625  0.07858370961215082  0.310296395507413  1.0000
  O   O3        1.0  0.4436383109965375  0.14631237221422524  0.37891360637295796  1.0000
  O   O4        1.0  0.3047344600046768  0.5777304026921607  0.8107618923634592  1.0000
  O   O5        1.0  0.8768537229630842  0.14875835136624727  0.811088558272264  1.0000
