data_image0
_chemical_formula_structural       BaTiBaO3TiO3
_chemical_formula_sum              "Ba2 Ti2 O6"
_cell_length_a       4.059862712105331
_cell_length_b       7.475116020225866
_cell_length_c       6.412926673889161
_cell_angle_alpha    102.29573590323605
_cell_angle_beta     108.44393024863427
_cell_angle_gamma    89.95473215426142

_space_group_name_H-M_alt    "P 1"
_space_group_IT_number       1

loop_
  _space_group_symop_operation_xyz
  'x, y, z'

loop_
  _atom_site_type_symbol
  _atom_site_label
  _atom_site_symmetry_multiplicity
  _atom_site_fract_x
  _atom_site_fract_y
  _atom_site_fract_z
  _atom_site_occupancy
  Ba  Ba1       1.0  0.12372174850506779  0.6255889736053939  0.33291138508922247  1.0000
  Ti  Ti1       1.0  0.8771895347141377  0.9700011866409465  0.839490222910391  1.0000
  Ba  Ba2       1.0  0.6236936792361877  0.1255780939893205  0.33286495854293907  1.0000
  O   O1        1.0  0.3841539594223792  0.02710859791590649  0.8536061805867583  1.0000
  O   O2        1.0  0.5056755015583742  0.4369918411800184  0.09687313316544986  1.0000
  O   O3        1.0  0.013641937174785262  0.9095328360018808  0.11235313823314706  1.0000
  Ti  Ti2       1.0  0.37022236187753804  0.2812860358074154  0.8263134404598546  1.0000
  O   O4        1.0  0.7417270364304313  0.8143513554429904  0.5689024525053008  1.0000
  O   O5        1.0  0.8632989344604228  0.22415739634154244  0.81224340869132  1.0000
  O   O6        1.0  0.23373080168739746  0.34167807215033347  0.5533690092232636  1.0000
