data_image0
_chemical_formula_structural       TiO3BaO2TiO2
_chemical_formula_sum              "Ti2 O7 Ba1"
_cell_length_a       3.892661611755429
_cell_length_b       6.580805101624296
_cell_length_c       5.940303325653076
_cell_angle_alpha    119.24725151370684
_cell_angle_beta     90.00823971228546
_cell_angle_gamma    89.88016684347686

_space_group_name_H-M_alt    "P 1"
_space_group_IT_number       1

loop_
  _space_group_symop_operation_xyz
  'x, y, z'

loop_
  _atom_site_type_symbol
  _atom_site_label
  _atom_site_symmetry_multiplicity
  _atom_site_fract_x
  _atom_site_fract_y
  _atom_site_fract_z
  _atom_site_occupancy
  Ti  Ti1       1.0  0.4894045346316342  0.5270545860904113  0.47771751322186745  1.0000
  O   O1        1.0  0.5227616949153628  0.31599507819164574  0.11463185416232029  1.0000
  O   O2        1.0  0.03306174016401481  0.5659557281672671  0.4982140757158985  1.0000
  O   O3        1.0  0.52267646626194  0.22155823084277637  0.45285554768269615  1.0000
  Ba  Ba1       1.0  0.02378054958469849  0.9942479564622669  0.08843221460694702  1.0000
  O   O4        1.0  0.5404369399780071  0.9204981390693332  0.6373731720790246  1.0000
  O   O5        1.0  0.5498835844227856  0.8040989150227564  0.38216276951311284  1.0000
  Ti  Ti2       1.0  0.5675488383838463  0.33521556712874034  0.810744618410127  1.0000
  O   O6        1.0  0.03689351067352808  0.2660069557340503  0.7982420190524133  1.0000
  O   O7        1.0  0.538961735638841  0.6337545629175156  0.865293416890771  1.0000
