data_image0
_chemical_formula_structural       BaTiBaO5Ti2
_chemical_formula_sum              "Ba2 Ti3 O5"
_cell_length_a       6.138937429081359
_cell_length_b       5.450166088653439
_cell_length_c       6.856356143951416
_cell_angle_alpha    115.45337755135087
_cell_angle_beta     113.97352364361174
_cell_angle_gamma    89.26434967439023

_space_group_name_H-M_alt    "P 1"
_space_group_IT_number       1

loop_
  _space_group_symop_operation_xyz
  'x, y, z'

loop_
  _atom_site_type_symbol
  _atom_site_label
  _atom_site_symmetry_multiplicity
  _atom_site_fract_x
  _atom_site_fract_y
  _atom_site_fract_z
  _atom_site_occupancy
  Ba  Ba1       1.0  0.31909755264548445  0.31435055093735076  0.7697703304567918  1.0000
  Ti  Ti1       1.0  0.9249049493163155  0.5944466399383933  0.347887090282743  1.0000
  Ba  Ba2       1.0  0.9320231077947471  0.9005248221189116  0.9599894149353132  1.0000
  O   O1        1.0  0.5353691602370533  0.46722063160366284  0.5539363660331141  1.0000
  O   O2        1.0  0.8028937074761608  0.902245402653991  0.527508179555688  1.0000
  O   O3        1.0  0.940547903557176  0.2784827023758279  0.3933688755968335  1.0000
  O   O4        1.0  0.3881503730298849  0.8402086468210329  0.14493451315461692  1.0000
  O   O5        1.0  0.08324291091992464  0.47498672319959906  0.13859278685305726  1.0000
  Ti  Ti2       1.0  0.6398061222465785  0.14998617323177652  0.381802940495474  1.0000
  Ti  Ti3       1.0  0.42646285540698814  0.6566075276680365  0.35384608824936  1.0000
