data_image0
_chemical_formula_structural       OBaOTiBaO3
_chemical_formula_sum              "O5 Ba2 Ti1"
_cell_length_a       3.8530682403257845
_cell_length_b       6.385960690826267
_cell_length_c       7.6042985916137695
_cell_angle_alpha    60.17590029420677
_cell_angle_beta     76.04077575277873
_cell_angle_gamma    73.41600158892265

_space_group_name_H-M_alt    "P 1"
_space_group_IT_number       1

loop_
  _space_group_symop_operation_xyz
  'x, y, z'

loop_
  _atom_site_type_symbol
  _atom_site_label
  _atom_site_symmetry_multiplicity
  _atom_site_fract_x
  _atom_site_fract_y
  _atom_site_fract_z
  _atom_site_occupancy
  O   O1        1.0  0.6131706668409137  0.05523410463853007  0.96915949759086  1.0000
  Ba  Ba1       1.0  0.3565805410682931  0.2732147775661915  0.26918645712838724  1.0000
  O   O2        1.0  0.27817059295429675  0.7382011296304746  0.966130839073082  1.0000
  Ti  Ti1       1.0  0.13432572703785733  0.07148559616636667  0.9039186336607525  1.0000
  Ba  Ba2       1.0  0.4895781278980983  0.5971882654469826  0.6789166782320816  1.0000
  O   O3        1.0  0.9442820870098224  0.9177151891995694  0.44726735349752617  1.0000
  O   O4        1.0  0.16428428948885945  0.28305582376577654  0.6359023232524766  1.0000
  O   O5        1.0  0.9657375864988896  0.31501338021901376  0.005155647992915124  1.0000
