data_image0
_chemical_formula_structural       Ba3O5Ti2O3TiO2
_chemical_formula_sum              "Ba3 O10 Ti3"
_cell_length_a       3.9672757051060805
_cell_length_b       3.973791000736799
_cell_length_c       15.31321716308594
_cell_angle_alpha    97.48918197022141
_cell_angle_beta     97.45436170356349
_cell_angle_gamma    90.00186021549636

_space_group_name_H-M_alt    "P 1"
_space_group_IT_number       1

loop_
  _space_group_symop_operation_xyz
  'x, y, z'

loop_
  _atom_site_type_symbol
  _atom_site_label
  _atom_site_symmetry_multiplicity
  _atom_site_fract_x
  _atom_site_fract_y
  _atom_site_fract_z
  _atom_site_occupancy
  Ba  Ba1       1.0  0.22049367401934825  0.47630437645398394  0.4204365156948659  1.0000
  Ba  Ba2       1.0  0.6267395317380178  0.8755821840637351  0.2264753481801578  1.0000
  Ba  Ba3       1.0  0.4899048053383425  0.7373335140827537  0.9519192352352822  1.0000
  O   O1        1.0  0.2912047715611078  0.03118722792004644  0.5430745847543612  1.0000
  O   O2        1.0  0.42374123446426887  0.17112321895578672  0.8197017070637213  1.0000
  O   O3        1.0  0.7869430856785882  0.5253304439753318  0.5430800960945463  1.0000
  O   O4        1.0  0.06288459420143745  0.8111420746065799  0.0984821411271258  1.0000
  O   O5        1.0  0.9235739560456279  0.6710116290385437  0.8195649894198196  1.0000
  Ti  Ti1       1.0  0.0616159644451396  0.30983225225611655  0.09587018209592177  1.0000
  Ti  Ti2       1.0  0.9128186630578304  0.15731156535434598  0.7951447522676648  1.0000
  O   O6        1.0  0.7235623605026382  0.9674800261408997  0.41625511800189513  1.0000
  O   O7        1.0  0.5629880917603793  0.3112350022276263  0.09853938837311926  1.0000
  O   O8        1.0  0.9983834044134774  0.2460333936290613  0.969092201292003  1.0000
  Ti  Ti3       1.0  0.776242808463241  0.05105739139872318  0.5480093642653819  1.0000
  O   O9        1.0  0.12974891367406463  0.37832087961245764  0.23214935288749153  1.0000
  O   O10       1.0  0.856489830683551  0.09730941265947647  0.6791336653534088  1.0000
