data_image0
_chemical_formula_structural       BaOTiBa2OBaTi2O7
_chemical_formula_sum              "Ba4 O9 Ti3"
_cell_length_a       4.032091582395611
_cell_length_b       4.0244837355761955
_cell_length_c       15.234399795532227
_cell_angle_alpha    97.67847395665582
_cell_angle_beta     97.6702162575619
_cell_angle_gamma    90.17860517285123

_space_group_name_H-M_alt    "P 1"
_space_group_IT_number       1

loop_
  _space_group_symop_operation_xyz
  'x, y, z'

loop_
  _atom_site_type_symbol
  _atom_site_label
  _atom_site_symmetry_multiplicity
  _atom_site_fract_x
  _atom_site_fract_y
  _atom_site_fract_z
  _atom_site_occupancy
  Ba  Ba1       1.0  0.4776716665348092  0.023348588591061287  0.9520419143985708  1.0000
  O   O1        1.0  0.7115143445249922  0.25626827390744694  0.41930622762544323  1.0000
  Ti  Ti1       1.0  0.7761357764385796  0.32173104807201997  0.549882048398934  1.0000
  Ba  Ba2       1.0  0.20591626754946066  0.7513976416975434  0.4090353425183725  1.0000
  Ba  Ba3       1.0  0.3462057551140406  0.8919414799411088  0.6906882542899013  1.0000
  O   O2        1.0  0.1398522794621522  0.18530785468973937  0.27759953577196894  1.0000
  Ba  Ba4       1.0  0.07468125519739827  0.6200350088452264  0.1477101654687458  1.0000
  Ti  Ti2       1.0  0.6381286761357319  0.18350325659017094  0.27397517482543926  1.0000
  Ti  Ti3       1.0  0.9141622776704048  0.4598191356696294  0.8258285913416717  1.0000
  O   O3        1.0  0.5718197302050251  0.11706658367789738  0.14309885741933578  1.0000
  O   O4        1.0  0.8408103715274664  0.38703171493055466  0.6804082397804464  1.0000
  O   O5        1.0  0.6393592120834587  0.6846638539078845  0.27661182068139195  1.0000
  O   O6        1.0  0.9129021270134031  0.9586591391159323  0.8232081772916511  1.0000
  O   O7        1.0  0.7761378227334286  0.8216298123720283  0.5498399219636033  1.0000
  O   O8        1.0  0.9804294430339445  0.5262277194731355  0.9567074829166244  1.0000
  O   O9        1.0  0.412374858561075  0.45799031846010757  0.8221591353210119  1.0000
