data_image0
_chemical_formula_structural       BaTiBa2TiO7
_chemical_formula_sum              "Ba3 Ti2 O7"
_cell_length_a       6.653210136126895
_cell_length_b       6.652542973167311
_cell_length_c       6.938581943511964
_cell_angle_alpha    76.73459299104654
_cell_angle_beta     76.74009151899955
_cell_angle_gamma    57.753333955708676

_space_group_name_H-M_alt    "P 1"
_space_group_IT_number       1

loop_
  _space_group_symop_operation_xyz
  'x, y, z'

loop_
  _atom_site_type_symbol
  _atom_site_label
  _atom_site_symmetry_multiplicity
  _atom_site_fract_x
  _atom_site_fract_y
  _atom_site_fract_z
  _atom_site_occupancy
  Ba  Ba1       1.0  0.8398394043776568  0.9384134812108778  0.03144377675226281  1.0000
  Ti  Ti1       1.0  0.47146778993739763  0.570060751493295  0.31355544574903516  1.0000
  Ba  Ba2       1.0  0.116439733321214  0.215266378188531  0.27071277363042917  1.0000
  Ba  Ba3       1.0  0.5629888677186712  0.6608050782621424  0.7934748845395545  1.0000
  Ti  Ti2       1.0  0.20771671640320638  0.3061474470474286  0.7506800702198643  1.0000
  O   O1        1.0  0.6943079348571277  0.33807491696498776  0.16130271583311925  1.0000
  O   O2        1.0  0.9850106816106753  0.5380718727536472  0.9030645133181825  1.0000
  O   O3        1.0  0.4396642720800555  0.08309423284242302  0.9027965631184092  1.0000
  O   O4        1.0  0.3396871998812183  0.43812022523846705  0.5322145594396608  1.0000
  O   O5        1.0  0.2394377578718078  0.7929128138104391  0.16139245941214983  1.0000
  O   O6        1.0  0.06582407975017592  0.16541727781196697  0.681625520916411  1.0000
  O   O7        1.0  0.6128445846414172  0.711194033131337  0.38268965733965593  1.0000
