data_image0
_chemical_formula_structural       BaO3TiO
_chemical_formula_sum              "Ba1 O4 Ti1"
_cell_length_a       3.945353561256673
_cell_length_b       4.200478801000324
_cell_length_c       5.149836540222168
_cell_angle_alpha    95.51053787188016
_cell_angle_beta     89.97796831409434
_cell_angle_gamma    90.03363435207866

_space_group_name_H-M_alt    "P 1"
_space_group_IT_number       1

loop_
  _space_group_symop_operation_xyz
  'x, y, z'

loop_
  _atom_site_type_symbol
  _atom_site_label
  _atom_site_symmetry_multiplicity
  _atom_site_fract_x
  _atom_site_fract_y
  _atom_site_fract_z
  _atom_site_occupancy
  Ba  Ba1       1.0  0.3041748381114907  0.7175442490296285  0.12598733285957045  1.0000
  O   O1        1.0  0.3045591795620575  0.28894770504756534  0.49846524275366394  1.0000
  O   O2        1.0  0.8046553839466172  0.15693108945611656  0.11044989344949241  1.0000
  O   O3        1.0  0.8040504544755209  0.3768614415780951  0.9064912188235171  1.0000
  Ti  Ti1       1.0  0.8036967087041457  0.2305199532031813  0.529895870946344  1.0000
  O   O4        1.0  0.8041974526146198  0.806003880289252  0.507466482873934  1.0000
