data_image0
_chemical_formula_structural       OTiBa2TiOBa2O2BaO3
_chemical_formula_sum              "O7 Ti2 Ba5"
_cell_length_a       6.148007628209069
_cell_length_b       7.052583144485951
_cell_length_c       7.629544258117675
_cell_angle_alpha    100.72447192254744
_cell_angle_beta     93.04949072016406
_cell_angle_gamma    111.46768996224272

_space_group_name_H-M_alt    "P 1"
_space_group_IT_number       1

loop_
  _space_group_symop_operation_xyz
  'x, y, z'

loop_
  _atom_site_type_symbol
  _atom_site_label
  _atom_site_symmetry_multiplicity
  _atom_site_fract_x
  _atom_site_fract_y
  _atom_site_fract_z
  _atom_site_occupancy
  O   O1        1.0  0.31327353217182247  0.2769848369931788  0.9112215109410957  1.0000
  Ti  Ti1       1.0  0.7342153625627346  0.4388825893818505  0.42800810480035634  1.0000
  Ba  Ba1       1.0  0.0844749260567218  0.2578056880323085  0.1885771208832852  1.0000
  Ba  Ba2       1.0  0.7840333166796125  0.6348414159379594  0.04634284015076899  1.0000
  Ti  Ti2       1.0  0.4557861592613189  0.07283244504212043  0.957091608513452  1.0000
  O   O2        1.0  0.8137038512921784  0.2553400054294975  0.5391732859535513  1.0000
  Ba  Ba3       1.0  0.4242653770293136  0.8979299333101978  0.35214948106702315  1.0000
  Ba  Ba4       1.0  0.2552370369539169  0.5410021015749816  0.7266194282312267  1.0000
  O   O3        1.0  0.6443329789052886  0.287307085895976  0.18997549963354848  1.0000
  O   O4        1.0  0.5393781536430466  0.5837551593075009  0.4858807987267365  1.0000
  Ba  Ba5       1.0  0.9249356409429038  0.9643769291195423  0.6827387953733816  1.0000
  O   O5        1.0  0.6568766390512956  0.9154769774288322  0.9463984266483249  1.0000
  O   O6        1.0  0.023083706189897257  0.6452474172603199  0.43194142846121797  1.0000
  O   O7        1.0  0.16004718441153798  0.8429257930200356  0.901936437348839  1.0000
