data_image0
_chemical_formula_structural       BaTi2O5Ba2O2
_chemical_formula_sum              "Ba3 Ti2 O7"
_cell_length_a       4.081050230570601
_cell_length_b       4.082700167957134
_cell_length_c       11.076240539550781
_cell_angle_alpha    100.52705169631179
_cell_angle_beta     100.55307512254814
_cell_angle_gamma    90.35825276665454

_space_group_name_H-M_alt    "P 1"
_space_group_IT_number       1

loop_
  _space_group_symop_operation_xyz
  'x, y, z'

loop_
  _atom_site_type_symbol
  _atom_site_label
  _atom_site_symmetry_multiplicity
  _atom_site_fract_x
  _atom_site_fract_y
  _atom_site_fract_z
  _atom_site_occupancy
  Ba  Ba1       1.0  0.14800926768731648  0.7397029584187174  0.37812831665806007  1.0000
  Ti  Ti1       1.0  0.5666728596746939  0.13194589914818053  0.18852210923005058  1.0000
  Ti  Ti2       1.0  0.75632165267822  0.3201228953356228  0.5676483670483861  1.0000
  O   O1        1.0  0.2178162585067648  0.3460831893384004  0.5668609999528901  1.0000
  O   O2        1.0  0.7298961670154439  0.8579669671796298  0.5668454730749662  1.0000
  O   O3        1.0  0.029113076949689478  0.1587756429872666  0.18932324591430497  1.0000
  O   O4        1.0  0.6299048497988057  0.2578073693664083  0.3780628343209761  1.0000
  O   O5        1.0  0.5408783883917921  0.6707673971565562  0.18928364514370222  1.0000
  Ba  Ba2       1.0  0.33007616247863586  0.9230443657426859  0.7441060918481297  1.0000
  Ba  Ba3       1.0  0.9636979923177321  0.5584078093965461  0.012061767791327881  1.0000
  O   O6        1.0  0.4457177024891066  0.07087262733332572  0.005870493134319966  1.0000
  O   O7        1.0  0.8179191884300596  0.44090245369860326  0.7503029750082189  1.0000
