data_image0
_chemical_formula_structural       OBaTiO
_chemical_formula_sum              "O2 Ba1 Ti1"
_cell_length_a       3.3213982102756705
_cell_length_b       3.3205180765957705
_cell_length_c       6.3248419761657715
_cell_angle_alpha    74.79128163590809
_cell_angle_beta     74.77286712039361
_cell_angle_gamma    59.99240893414035

_space_group_name_H-M_alt    "P 1"
_space_group_IT_number       1

loop_
  _space_group_symop_operation_xyz
  'x, y, z'

loop_
  _atom_site_type_symbol
  _atom_site_label
  _atom_site_symmetry_multiplicity
  _atom_site_fract_x
  _atom_site_fract_y
  _atom_site_fract_z
  _atom_site_occupancy
  O   O1        1.0  0.9610847832246842  0.7288933304523733  0.9070462579798758  1.0000
  Ba  Ba1       1.0  0.18252923557623113  0.9505714028410588  0.24206072801608997  1.0000
  Ti  Ti1       1.0  0.6827987867732679  0.4503809686414956  0.7423263089820152  1.0000
  O   O2        1.0  0.40444908889423864  0.17212355293202963  0.57718749556327  1.0000
