data_image0
_chemical_formula_structural       BaTiO3BaTiO3
_chemical_formula_sum              "Ba2 Ti2 O6"
_cell_length_a       4.008927401936649
_cell_length_b       5.747099225564706
_cell_length_c       6.592534542083741
_cell_angle_alpha    115.89686200570584
_cell_angle_beta     90.00963307124667
_cell_angle_gamma    90.04965798095196

_space_group_name_H-M_alt    "P 1"
_space_group_IT_number       1

loop_
  _space_group_symop_operation_xyz
  'x, y, z'

loop_
  _atom_site_type_symbol
  _atom_site_label
  _atom_site_symmetry_multiplicity
  _atom_site_fract_x
  _atom_site_fract_y
  _atom_site_fract_z
  _atom_site_occupancy
  Ba  Ba1       1.0  0.5988297026964944  0.27344402919342975  0.6584977080553593  1.0000
  Ti  Ti1       1.0  0.11652262497714208  0.5076672636649779  0.13025357700337742  1.0000
  O   O1        1.0  0.08286903715070632  0.6328869471662771  0.8791521301028181  1.0000
  O   O2        1.0  0.08250397445589304  0.13275393598632743  0.8789921072932856  1.0000
  O   O3        1.0  0.08484840131011856  0.8608688862413527  0.3791503133657364  1.0000
  Ba  Ba2       1.0  0.5989915662535397  0.9922839956814159  0.09976443963835291  1.0000
  Ti  Ti2       1.0  0.11641754372111948  0.7581505560212661  0.6281945539886528  1.0000
  O   O4        1.0  0.5728180327964418  0.7705389862797067  0.653588534566164  1.0000
  O   O5        1.0  0.5728809741302461  0.4951364295317637  0.10466405371205043  1.0000
  O   O6        1.0  0.08434405607467951  0.4047460821841838  0.37901612609147894  1.0000
