data_image0
_chemical_formula_structural       Ba3OBaO5BaTiBaOBa
_chemical_formula_sum              "Ba7 O7 Ti1"
_cell_length_a       6.161004371137025
_cell_length_b       7.443108145115858
_cell_length_c       10.278803825378418
_cell_angle_alpha    72.2678461467018
_cell_angle_beta     69.06696666858026
_cell_angle_gamma    91.76572248598826

_space_group_name_H-M_alt    "P 1"
_space_group_IT_number       1

loop_
  _space_group_symop_operation_xyz
  'x, y, z'

loop_
  _atom_site_type_symbol
  _atom_site_label
  _atom_site_symmetry_multiplicity
  _atom_site_fract_x
  _atom_site_fract_y
  _atom_site_fract_z
  _atom_site_occupancy
  Ba  Ba1       1.0  0.46303864672316036  0.8479042973123634  0.7422518472096098  1.0000
  Ba  Ba2       1.0  0.5799774107683028  0.01319461618369849  0.32834411260570984  1.0000
  Ba  Ba3       1.0  0.9678928901622692  0.5581162270701016  0.7203082953051969  1.0000
  O   O1        1.0  0.6023355514905604  0.6268340934087013  0.9461172101277885  1.0000
  Ba  Ba4       1.0  0.8488695228774766  0.9493505615852421  0.9354960098899912  1.0000
  O   O2        1.0  0.8879606074037997  0.3708257308113639  0.23321054093505017  1.0000
  O   O3        1.0  0.6319795905626814  0.7577386126237411  0.20850317551280173  1.0000
  O   O4        1.0  0.43621224610808634  0.35593996282625845  0.2318023537450866  1.0000
  O   O5        1.0  0.8166412651877358  0.27402287186984103  0.0006659182531874441  1.0000
  O   O6        1.0  0.38844133330748803  0.7131889281451973  0.5632577709364415  1.0000
  Ba  Ba5       1.0  0.5498307610211202  0.4656578019995661  0.44306492446724455  1.0000
  Ti  Ti1       1.0  0.7566603961449131  0.46268296555704475  0.08497335635101458  1.0000
  Ba  Ba6       1.0  0.2778837149504043  0.311988932235363  0.02728529038772086  1.0000
  O   O7        1.0  0.06509267448026858  0.6418811217068551  0.9541862973381887  1.0000
  Ba  Ba7       1.0  0.21956501942913456  0.6553639492590312  0.18436727397466185  1.0000
