data_image0
_chemical_formula_structural       Ba2TiO
_chemical_formula_sum              "Ba2 Ti1 O1"
_cell_length_a       4.1141086440009325
_cell_length_b       3.993869921007666
_cell_length_c       8.403878211975098
_cell_angle_alpha    103.58431301775367
_cell_angle_beta     104.05465363551936
_cell_angle_gamma    90.02339599924254

_space_group_name_H-M_alt    "P 1"
_space_group_IT_number       1

loop_
  _space_group_symop_operation_xyz
  'x, y, z'

loop_
  _atom_site_type_symbol
  _atom_site_label
  _atom_site_symmetry_multiplicity
  _atom_site_fract_x
  _atom_site_fract_y
  _atom_site_fract_z
  _atom_site_occupancy
  Ba  Ba1       1.0  0.552109233029547  0.9964980889441671  0.43553881172731523  1.0000
  Ba  Ba2       1.0  0.8243802005139577  0.268717285136932  0.9818941087651614  1.0000
  Ti  Ti1       1.0  0.18824655720711383  0.6326694401783024  0.7087207886942428  1.0000
  O   O1        1.0  0.18825093375935842  0.13265635843263304  0.708717792387231  1.0000
