data_image0
_chemical_formula_structural       TiO2Ba
_chemical_formula_sum              "Ti1 O2 Ba1"
_cell_length_a       3.303718681067195
_cell_length_b       3.305350555446679
_cell_length_c       6.251606941223144
_cell_angle_alpha    74.75595588009072
_cell_angle_beta     74.73465773275998
_cell_angle_gamma    60.07751791979731

_space_group_name_H-M_alt    "P 1"
_space_group_IT_number       1

loop_
  _space_group_symop_operation_xyz
  'x, y, z'

loop_
  _atom_site_type_symbol
  _atom_site_label
  _atom_site_symmetry_multiplicity
  _atom_site_fract_x
  _atom_site_fract_y
  _atom_site_fract_z
  _atom_site_occupancy
  Ti  Ti1       1.0  0.24539118863101467  0.9856619345638903  0.33267806433316877  1.0000
  O   O1        1.0  0.523502690386001  0.2637270396175849  0.49858693388480263  1.0000
  O   O2        1.0  0.967379176054005  0.7075287379700121  0.1668142017188727  1.0000
  Ba  Ba1       1.0  0.7456253424593465  0.48554120308895726  0.8326911507062261  1.0000
