data_image0
_chemical_formula_structural       TiOBaO3Ba
_chemical_formula_sum              "Ti1 O4 Ba2"
_cell_length_a       4.046492097767251
_cell_length_b       4.047034294765713
_cell_length_c       7.349145412445068
_cell_angle_alpha    105.91118706015102
_cell_angle_beta     105.93794802900081
_cell_angle_gamma    89.94706188156168

_space_group_name_H-M_alt    "P 1"
_space_group_IT_number       1

loop_
  _space_group_symop_operation_xyz
  'x, y, z'

loop_
  _atom_site_type_symbol
  _atom_site_label
  _atom_site_symmetry_multiplicity
  _atom_site_fract_x
  _atom_site_fract_y
  _atom_site_fract_z
  _atom_site_occupancy
  Ti  Ti1       1.0  0.9480340901382167  0.6745942376359125  0.29232856694606646  1.0000
  O   O1        1.0  0.4478874972984702  0.6749130014477935  0.29230911126356207  1.0000
  Ba  Ba1       1.0  0.30463255267765105  0.03159505370146764  0.005619169823692712  1.0000
  O   O2        1.0  0.09527057765482919  0.8220370477529493  0.5865593925987124  1.0000
  O   O3        1.0  0.9479181561536699  0.17501633360084184  0.29233776128083633  1.0000
  O   O4        1.0  0.8007089668585377  0.5275768619535329  0.9980099051075171  1.0000
  Ba  Ba2       1.0  0.5913114768866821  0.3180106796327834  0.5790645047343602  1.0000
