data_image0
_chemical_formula_structural       BaOBa2O2BaOTiO3TiO
_chemical_formula_sum              "Ba4 O8 Ti2"
_cell_length_a       4.03896754509511
_cell_length_b       4.0445313541356915
_cell_length_c       13.536207199096681
_cell_angle_alpha    90.00377276908195
_cell_angle_beta     90.02589575096756
_cell_angle_gamma    90.26880460267869

_space_group_name_H-M_alt    "P 1"
_space_group_IT_number       1

loop_
  _space_group_symop_operation_xyz
  'x, y, z'

loop_
  _atom_site_type_symbol
  _atom_site_label
  _atom_site_symmetry_multiplicity
  _atom_site_fract_x
  _atom_site_fract_y
  _atom_site_fract_z
  _atom_site_occupancy
  Ba  Ba1       1.0  0.41124948191375604  0.8934954463814568  0.33107045909723176  1.0000
  O   O1        1.0  0.3930076374471167  0.4040962425353053  0.47280469399269354  1.0000
  Ba  Ba2       1.0  0.41198167428659704  0.8936447672360726  0.9151308598640039  1.0000
  Ba  Ba3       1.0  0.41225103890166115  0.8926961465808062  0.6230478179963348  1.0000
  O   O2        1.0  0.3935548433894015  0.40419573183086577  0.7733386000518224  1.0000
  O   O3        1.0  0.9017323409872706  0.9126061613757985  0.7733502468073913  1.0000
  Ba  Ba4       1.0  0.9091738757331762  0.39660492007054093  0.1230837621332961  1.0000
  O   O4        1.0  0.8997461273572828  0.4050825038554199  0.3266468631250946  1.0000
  Ti  Ti1       1.0  0.9243670163973037  0.3806863746940813  0.7738416492362198  1.0000
  O   O5        1.0  0.8987505792802908  0.40666937480732673  0.6230609330027288  1.0000
  O   O6        1.0  0.9010594373724379  0.9124511259698939  0.47279373466927394  1.0000
  O   O7        1.0  0.9007470001366665  0.40534157430087425  0.9195548427740218  1.0000
  Ti  Ti2       1.0  0.9236819905099675  0.3804712233426132  0.4723440254894684  1.0000
  O   O8        1.0  0.40674907156437246  0.8993909356128459  0.12301625978951111  1.0000
