data_image0
_chemical_formula_structural       O2Ba2O2TiO2TiO4Ti
_chemical_formula_sum              "O10 Ba2 Ti3"
_cell_length_a       4.018150372018466
_cell_length_b       4.039652495403218
_cell_length_c       11.957090377807619
_cell_angle_alpha    90.79393000104278
_cell_angle_beta     90.6396292120845
_cell_angle_gamma    89.81900933037707

_space_group_name_H-M_alt    "P 1"
_space_group_IT_number       1

loop_
  _space_group_symop_operation_xyz
  'x, y, z'

loop_
  _atom_site_type_symbol
  _atom_site_label
  _atom_site_symmetry_multiplicity
  _atom_site_fract_x
  _atom_site_fract_y
  _atom_site_fract_z
  _atom_site_occupancy
  O   O1        1.0  0.30917394448278196  0.6092144141096  0.6376447896439832  1.0000
  O   O2        1.0  0.31071277829296906  0.5909167063137668  0.9709800695832881  1.0000
  Ba  Ba1       1.0  0.8117393547493215  0.6028730229197501  0.8177094115797152  1.0000
  Ba  Ba2       1.0  0.7970232748007119  0.5859114239574238  0.4722501334007559  1.0000
  O   O3        1.0  0.31091212585679995  0.10318512353474914  0.4696994915435437  1.0000
  O   O4        1.0  0.30400084204626154  0.60641892976757  0.3105675751994721  1.0000
  Ti  Ti1       1.0  0.3419871205041147  0.1409849315572622  0.9959018783078759  1.0000
  O   O5        1.0  0.8027289922243454  0.10070515106435024  0.9707415479770247  1.0000
  O   O6        1.0  0.8134858936457886  0.6065331599422015  0.1566541554462002  1.0000
  Ti  Ti2       1.0  0.27294381713421756  0.058934189136271735  0.30135403259062116  1.0000
  O   O7        1.0  0.32400067230812396  0.11892589096371228  0.14600002255933864  1.0000
  O   O8        1.0  0.813397512822741  0.09493254109306734  0.31079360597731015  1.0000
  O   O9        1.0  0.3117676429765719  0.10379450414969392  0.7989233282548892  1.0000
  O   O10       1.0  0.8143040320969084  0.10173734269373502  0.6374876252695109  1.0000
  Ti  Ti3       1.0  0.2941077518364309  0.07955579452705991  0.6452198885023471  1.0000
