data_image0
_chemical_formula_structural       O2BaTi
_chemical_formula_sum              "O2 Ba1 Ti1"
_cell_length_a       3.298631271404392
_cell_length_b       3.298299057229492
_cell_length_c       6.303825378417968
_cell_angle_alpha    74.85147548735011
_cell_angle_beta     74.8483065486506
_cell_angle_gamma    60.068373750998916

_space_group_name_H-M_alt    "P 1"
_space_group_IT_number       1

loop_
  _space_group_symop_operation_xyz
  'x, y, z'

loop_
  _atom_site_type_symbol
  _atom_site_label
  _atom_site_symmetry_multiplicity
  _atom_site_fract_x
  _atom_site_fract_y
  _atom_site_fract_z
  _atom_site_occupancy
  O   O1        1.0  0.950242643041665  0.6524721214889835  0.6163005498106204  1.0000
  O   O2        1.0  0.3938236230028424  0.09643577927514131  0.28407029605746836  1.0000
  Ba  Ba1       1.0  0.17181576297285095  0.8743752912196631  0.9502827331626729  1.0000
  Ti  Ti1       1.0  0.6723759779868258  0.37412410316469485  0.4499715063624123  1.0000
