data_image0
_chemical_formula_structural       BaTiO2
_chemical_formula_sum              "Ba1 Ti1 O2"
_cell_length_a       4.081916353707518
_cell_length_b       4.027796945374474
_cell_length_c       4.031897068023682
_cell_angle_alpha    90.03321771439899
_cell_angle_beta     90.03960394033327
_cell_angle_gamma    90.02580012727806

_space_group_name_H-M_alt    "P 1"
_space_group_IT_number       1

loop_
  _space_group_symop_operation_xyz
  'x, y, z'

loop_
  _atom_site_type_symbol
  _atom_site_label
  _atom_site_symmetry_multiplicity
  _atom_site_fract_x
  _atom_site_fract_y
  _atom_site_fract_z
  _atom_site_occupancy
  Ba  Ba1       1.0  0.20515412092208862  0.510966420173645  0.6208117604255676  1.0000
  Ti  Ti1       1.0  0.7051881551742551  0.011212814599275589  0.12080546468496323  1.0000
  O   O1        1.0  0.7051246166229248  0.010819576680660248  0.6207579970359802  1.0000
  O   O2        1.0  0.7051436305046082  0.5111558437347412  0.1208743080496788  1.0000
