data_image0
_chemical_formula_structural       OTiBaO3BaTiO
_chemical_formula_sum              "O5 Ti2 Ba2"
_cell_length_a       4.085712136199738
_cell_length_b       6.006634344464064
_cell_length_c       6.456738948822021
_cell_angle_alpha    105.48048983952033
_cell_angle_beta     89.94912442336776
_cell_angle_gamma    109.74405193303265

_space_group_name_H-M_alt    "P 1"
_space_group_IT_number       1

loop_
  _space_group_symop_operation_xyz
  'x, y, z'

loop_
  _atom_site_type_symbol
  _atom_site_label
  _atom_site_symmetry_multiplicity
  _atom_site_fract_x
  _atom_site_fract_y
  _atom_site_fract_z
  _atom_site_occupancy
  O   O1        1.0  0.5061391585289875  0.22255323483134437  0.24827257169003197  1.0000
  Ti  Ti1       1.0  0.32252877884152464  0.8572969679454323  0.10162507991267987  1.0000
  Ba  Ba1       1.0  0.5668010619090651  0.34500435759737147  0.8677774344462986  1.0000
  O   O2        1.0  0.31557346207041925  0.8427121025393656  0.810532621673492  1.0000
  O   O3        1.0  0.16515922075790873  0.5415140321041491  0.19428599701305013  1.0000
  O   O4        1.0  0.8241231339598416  0.8604764232180078  0.14044320982591482  1.0000
  Ba  Ba2       1.0  0.7634561271124684  0.7379494064058537  0.5209546996286862  1.0000
  Ti  Ti2       1.0  0.007737417062205021  0.22573898309798998  0.2869751813248638  1.0000
  O   O5        1.0  0.014637523759180386  0.2402427959894883  0.5778953566716226  1.0000
