data_image0
_chemical_formula_structural       Ba2OTiO2BaO2TiO2
_chemical_formula_sum              "Ba3 O7 Ti2"
_cell_length_a       4.069530578623329
_cell_length_b       4.070646432945812
_cell_length_c       11.121822357177734
_cell_angle_alpha    100.51569254706281
_cell_angle_beta     100.48390619817131
_cell_angle_gamma    89.99005787720604

_space_group_name_H-M_alt    "P 1"
_space_group_IT_number       1

loop_
  _space_group_symop_operation_xyz
  'x, y, z'

loop_
  _atom_site_type_symbol
  _atom_site_label
  _atom_site_symmetry_multiplicity
  _atom_site_fract_x
  _atom_site_fract_y
  _atom_site_fract_z
  _atom_site_occupancy
  Ba  Ba1       1.0  0.3050067004251289  0.536703405597965  0.49446327862627176  1.0000
  Ba  Ba2       1.0  0.49346264781910887  0.720538579791785  0.8602718822104037  1.0000
  O   O1        1.0  0.8048471826075129  0.053225487510993826  0.49447062242344647  1.0000
  Ti  Ti1       1.0  0.6908620826253311  0.9287439821654566  0.3050196564131245  1.0000
  O   O2        1.0  0.38524631249047653  0.14326585578435813  0.68336012578287  1.0000
  O   O3        1.0  0.9837253121786437  0.23697933446687097  0.866132982257127  1.0000
  Ba  Ba3       1.0  0.11632449024219016  0.35484617078264064  0.1286612306782669  1.0000
  O   O4        1.0  0.22445395691020947  0.9543609554890274  0.30560712075066476  1.0000
  O   O5        1.0  0.8946133151948871  0.6541972010530315  0.6831919858926493  1.0000
  Ti  Ti2       1.0  0.9189963230026217  0.11827560155916826  0.6839213165470709  1.0000
  O   O6        1.0  0.7151908203769272  0.4655347535026246  0.305764048154303  1.0000
  O   O7        1.0  0.6258698033163603  0.8657662311787921  0.12280186707215607  1.0000
