data_image0
_chemical_formula_structural       OBaTiO3TiOTiOTiO
_chemical_formula_sum              "O7 Ba1 Ti4"
_cell_length_a       3.886145914524827
_cell_length_b       5.4048245755556765
_cell_length_c       9.718969345092773
_cell_angle_alpha    112.40613660485164
_cell_angle_beta     100.04995004048244
_cell_angle_gamma    73.75135149292824

_space_group_name_H-M_alt    "P 1"
_space_group_IT_number       1

loop_
  _space_group_symop_operation_xyz
  'x, y, z'

loop_
  _atom_site_type_symbol
  _atom_site_label
  _atom_site_symmetry_multiplicity
  _atom_site_fract_x
  _atom_site_fract_y
  _atom_site_fract_z
  _atom_site_occupancy
  O   O1        1.0  0.27486027493682935  0.6995104507592563  0.056931555031984146  1.0000
  Ba  Ba1       1.0  0.14107616546922896  0.33056944448941405  0.4412627146326523  1.0000
  Ti  Ti1       1.0  0.5184974283037381  0.9113361603542994  0.6791464876522816  1.0000
  O   O2        1.0  0.35367352948259406  0.28898088276112377  0.7254210970582774  1.0000
  O   O3        1.0  0.6631280060669783  0.7976645977636279  0.8667056313965558  1.0000
  O   O4        1.0  0.6002987972537883  0.215779607119418  0.20851662134374443  1.0000
  Ti  Ti2       1.0  0.7341848904996794  0.8406224821232001  0.0933509006734077  1.0000
  O   O5        1.0  0.05513633447780444  0.8276951913966921  0.6853780269751149  1.0000
  Ti  Ti3       1.0  0.44614383720210693  0.6042808630329795  0.24152818103068527  1.0000
  O   O6        1.0  0.9258534601805632  0.6674519628770818  0.2537366739107524  1.0000
  Ti  Ti4       1.0  0.21037779014554456  0.6613826799992162  0.8436385247959871  1.0000
  O   O7        1.0  0.49556321943108095  0.7296905901439042  0.469381201510651  1.0000
