data_image0
_chemical_formula_structural       BaO2TiOBaO2TiO
_chemical_formula_sum              "Ba2 O6 Ti2"
_cell_length_a       4.059066315319049
_cell_length_b       6.217194002420868
_cell_length_c       7.864439487457275
_cell_angle_alpha    112.91956925664101
_cell_angle_beta     90.00564424066432
_cell_angle_gamma    90.02948159965874

_space_group_name_H-M_alt    "P 1"
_space_group_IT_number       1

loop_
  _space_group_symop_operation_xyz
  'x, y, z'

loop_
  _atom_site_type_symbol
  _atom_site_label
  _atom_site_symmetry_multiplicity
  _atom_site_fract_x
  _atom_site_fract_y
  _atom_site_fract_z
  _atom_site_occupancy
  Ba  Ba1       1.0  0.36965206743394996  0.5746063330661682  0.03073219116979644  1.0000
  O   O1        1.0  0.8698376039712368  0.3872269793772993  0.4234503765049473  1.0000
  O   O2        1.0  0.369717143558048  0.24332553726160344  0.20833086668176026  1.0000
  Ti  Ti1       1.0  0.3698878156728762  0.4567207765445428  0.46858878095441037  1.0000
  O   O3        1.0  0.869608248010896  0.2534986234845491  0.965018118176829  1.0000
  Ba  Ba2       1.0  0.8699164107783375  0.05580003696265064  0.6011009836162464  1.0000
  O   O4        1.0  0.3699176251279679  0.3769065608451872  0.6667469759332446  1.0000
  O   O5        1.0  0.36986272630525446  0.7575074708513624  0.5040701077800002  1.0000
  Ti  Ti2       1.0  0.8696256415219557  0.1737641146155453  0.1632113904538743  1.0000
  O   O6        1.0  0.8697125632396381  0.8729804402259846  0.127724047434873  1.0000
