data_image0
_chemical_formula_structural       BaOTiO2
_chemical_formula_sum              "Ba1 O3 Ti1"
_cell_length_a       4.104309373406819
_cell_length_b       4.097878704102816
_cell_length_c       4.09249496459961
_cell_angle_alpha    90.01993299791486
_cell_angle_beta     89.51167819840754
_cell_angle_gamma    90.05518360011872

_space_group_name_H-M_alt    "P 1"
_space_group_IT_number       1

loop_
  _space_group_symop_operation_xyz
  'x, y, z'

loop_
  _atom_site_type_symbol
  _atom_site_label
  _atom_site_symmetry_multiplicity
  _atom_site_fract_x
  _atom_site_fract_y
  _atom_site_fract_z
  _atom_site_occupancy
  Ba  Ba1       1.0  0.737482385863401  0.8376396216088547  0.04146260862312936  1.0000
  O   O1        1.0  0.22093985052167975  0.8675318812193414  0.5252695906822739  1.0000
  Ti  Ti1       1.0  0.254032333423904  0.3217095792025311  0.5571192006424477  1.0000
  O   O2        1.0  0.7070071260493201  0.3536705031131256  0.5250425434426903  1.0000
  O   O3        1.0  0.22112546815334558  0.3536415023098891  0.012062478209535328  1.0000
