data_image0
_chemical_formula_structural       BaOBa2OBaOTiO2TiBaTiO7
_chemical_formula_sum              "Ba5 O12 Ti3"
_cell_length_a       6.404249957914774
_cell_length_b       6.017376797456134
_cell_length_c       10.929105758666992
_cell_angle_alpha    90.29895984900071
_cell_angle_beta     94.14176738007563
_cell_angle_gamma    117.15032207645486

_space_group_name_H-M_alt    "P 1"
_space_group_IT_number       1

loop_
  _space_group_symop_operation_xyz
  'x, y, z'

loop_
  _atom_site_type_symbol
  _atom_site_label
  _atom_site_symmetry_multiplicity
  _atom_site_fract_x
  _atom_site_fract_y
  _atom_site_fract_z
  _atom_site_occupancy
  Ba  Ba1       1.0  0.066101719990371  0.09872218532432052  0.5976071799012738  1.0000
  O   O1        1.0  0.01790394534390378  0.4536614491275376  0.06187569229425846  1.0000
  Ba  Ba2       1.0  0.8776199693737224  0.5022866420913439  0.2788442335740993  1.0000
  Ba  Ba3       1.0  0.15055753905689234  0.14178295148661563  0.9798647022869221  1.0000
  O   O2        1.0  0.2592281032938708  0.4516390191396155  0.4015420247550335  1.0000
  Ba  Ba4       1.0  0.7707007725152102  0.4505202925184209  0.8142409655045357  1.0000
  O   O3        1.0  0.47534537892242945  0.030635519273763706  0.9060684814154999  1.0000
  Ti  Ti1       1.0  0.5147260071736409  0.8225929553249478  0.7938873380365766  1.0000
  O   O4        1.0  0.9795335216421376  0.5466379846238393  0.5722766230661052  1.0000
  O   O5        1.0  0.46367863756720856  0.5710721754773428  0.9030917382777899  1.0000
  Ti  Ti2       1.0  0.2797232958477874  0.6996326766570908  0.5403542843628236  1.0000
  Ba  Ba5       1.0  0.4798393686732897  0.8066645932520611  0.11244604416069337  1.0000
  Ti  Ti3       1.0  0.21948421961526038  0.1716168218040211  0.3100046439892926  1.0000
  O   O6        1.0  0.4104814204628991  0.9798726413217395  0.6529520177481898  1.0000
  O   O7        1.0  0.24801491799312192  0.929999570093095  0.40482992785198146  1.0000
  O   O8        1.0  0.4165396929029692  0.5559298950848176  0.6512523850850912  1.0000
  O   O9        1.0  0.9152010570773772  0.02931730993234348  0.2476163192042023  1.0000
  O   O10       1.0  0.01046939660918589  0.6972646705592063  0.06282549355850557  1.0000
  O   O11       1.0  0.835273781769948  0.973680398427553  0.7898227252371425  1.0000
  O   O12       1.0  0.42885356015241116  0.26541298799014834  0.1927192619589029  1.0000
