data_image0
_chemical_formula_structural       TiBa3OTiO4
_chemical_formula_sum              "Ti2 Ba3 O5"
_cell_length_a       5.4659511874433155
_cell_length_b       6.74136503920151
_cell_length_c       6.830731391906739
_cell_angle_alpha    67.91742048753811
_cell_angle_beta     72.25628334180367
_cell_angle_gamma    72.19720295537543

_space_group_name_H-M_alt    "P 1"
_space_group_IT_number       1

loop_
  _space_group_symop_operation_xyz
  'x, y, z'

loop_
  _atom_site_type_symbol
  _atom_site_label
  _atom_site_symmetry_multiplicity
  _atom_site_fract_x
  _atom_site_fract_y
  _atom_site_fract_z
  _atom_site_occupancy
  Ti  Ti1       1.0  0.017352954551817446  0.3707629652387316  0.5655550919180256  1.0000
  Ba  Ba1       1.0  0.039426015543103314  0.7580255092768652  0.9770035330012835  1.0000
  Ba  Ba2       1.0  0.7401376093933221  0.9886053629574323  0.467204582770606  1.0000
  Ba  Ba3       1.0  0.40171501714925395  0.235547872541933  0.9784757593738483  1.0000
  O   O1        1.0  0.1499408181272986  0.5724425821173478  0.6510574082258989  1.0000
  Ti  Ti2       1.0  0.4089220110095453  0.6283283615243207  0.3837557729823551  1.0000
  O   O2        1.0  0.853725635653021  0.13512293610087597  0.7206378476579838  1.0000
  O   O3        1.0  0.228410070672669  0.8843288092824655  0.2186962437281738  1.0000
  O   O4        1.0  0.7573574047930125  0.6002667982928743  0.4057788059408196  1.0000
  O   O5        1.0  0.3365153027619601  0.40212932721417777  0.31624208264046033  1.0000
