data_image0
_chemical_formula_structural       TiBa3TiO7
_chemical_formula_sum              "Ti2 Ba3 O7"
_cell_length_a       3.8473175419373753
_cell_length_b       7.395024226419628
_cell_length_c       8.540189743041992
_cell_angle_alpha    86.86685134505723
_cell_angle_beta     77.13099731664879
_cell_angle_gamma    75.2333929510236

_space_group_name_H-M_alt    "P 1"
_space_group_IT_number       1

loop_
  _space_group_symop_operation_xyz
  'x, y, z'

loop_
  _atom_site_type_symbol
  _atom_site_label
  _atom_site_symmetry_multiplicity
  _atom_site_fract_x
  _atom_site_fract_y
  _atom_site_fract_z
  _atom_site_occupancy
  Ti  Ti1       1.0  0.6849803468190716  0.46084383646921695  0.5834203835431868  1.0000
  Ba  Ba1       1.0  0.9887824736589983  0.5148934129742813  0.9213974071506579  1.0000
  Ba  Ba2       1.0  0.10265481691785272  0.024583332117855718  0.17150298186778223  1.0000
  Ba  Ba3       1.0  0.37681115761611483  0.02292086957189358  0.6312116016775673  1.0000
  Ti  Ti2       1.0  0.3263710330235337  0.4826497754641949  0.2773660420603272  1.0000
  O   O1        1.0  0.22788121838811232  0.4334579311650994  0.5244646664591706  1.0000
  O   O2        1.0  0.6915801427458672  0.2875883933729961  0.7426513978041741  1.0000
  O   O3        1.0  0.9754257230505301  0.00842427328331774  0.4461713472159277  1.0000
  O   O4        1.0  0.788746240339648  0.5028160058996657  0.33316069839304924  1.0000
  O   O5        1.0  0.3151255230479318  0.6635741657199044  0.1230120799327519  1.0000
  O   O6        1.0  0.5219280634571077  0.6621687624882878  0.7121153473641781  1.0000
  O   O7        1.0  0.48869615312831377  0.2788397785854712  0.14916217217320715  1.0000
