data_image0
_chemical_formula_structural       Ba3TiO2
_chemical_formula_sum              "Ba3 Ti1 O2"
_cell_length_a       4.093264584348448
_cell_length_b       4.093369700499454
_cell_length_c       11.310542106628418
_cell_angle_alpha    89.98136291673846
_cell_angle_beta     89.99729091935097
_cell_angle_gamma    90.02739156200892

_space_group_name_H-M_alt    "P 1"
_space_group_IT_number       1

loop_
  _space_group_symop_operation_xyz
  'x, y, z'

loop_
  _atom_site_type_symbol
  _atom_site_label
  _atom_site_symmetry_multiplicity
  _atom_site_fract_x
  _atom_site_fract_y
  _atom_site_fract_z
  _atom_site_occupancy
  Ba  Ba1       1.0  0.2855440832027616  0.89529334336206  0.9787537842666952  1.0000
  Ba  Ba2       1.0  0.7857920489995255  0.39502441066903843  0.6634531002214592  1.0000
  Ba  Ba3       1.0  0.2855821909174918  0.8951367796983437  0.3481007874069684  1.0000
  Ti  Ti1       1.0  0.7855325500364372  0.39522263774275357  0.16349560663068233  1.0000
  O   O1        1.0  0.7855294645553463  0.8952228042388287  0.16342434029643968  1.0000
  O   O2        1.0  0.2855345302756714  0.3952361544554421  0.16341720300782026  1.0000
