data_image0
_chemical_formula_structural       BaTi2OBaO2BaO4
_chemical_formula_sum              "Ba3 Ti2 O7"
_cell_length_a       3.9856601798562785
_cell_length_b       4.056837191909683
_cell_length_c       11.52548885345459
_cell_angle_alpha    100.05353565044412
_cell_angle_beta     89.8635080137394
_cell_angle_gamma    89.96332438739816

_space_group_name_H-M_alt    "P 1"
_space_group_IT_number       1

loop_
  _space_group_symop_operation_xyz
  'x, y, z'

loop_
  _atom_site_type_symbol
  _atom_site_label
  _atom_site_symmetry_multiplicity
  _atom_site_fract_x
  _atom_site_fract_y
  _atom_site_fract_z
  _atom_site_occupancy
  Ba  Ba1       1.0  0.6733471509375238  0.1944261773580491  0.9807629023576919  1.0000
  Ti  Ti1       1.0  0.17176413421363276  0.7879068701883238  0.14738717524963033  1.0000
  Ti  Ti2       1.0  0.16689473163765806  0.9693647534325187  0.5105753903703216  1.0000
  O   O1        1.0  0.1655900678975039  0.43777321174100414  0.5102859549068  1.0000
  Ba  Ba2       1.0  0.6640040726959637  0.5413040869283126  0.6771855886997622  1.0000
  O   O2        1.0  0.6652093711488645  0.9436311654633285  0.5098275918544611  1.0000
  O   O3        1.0  0.6695529786937057  0.764074186758764  0.14815375056854083  1.0000
  Ba  Ba3       1.0  0.6684993428403041  0.3665184031804523  0.3289073723162249  1.0000
  O   O4        1.0  0.1675609741365784  0.8530923486587806  0.3289828669457206  1.0000
  O   O5        1.0  0.16355444213073078  0.03037274759820651  0.6825606484753028  1.0000
  O   O6        1.0  0.1716500034729311  0.6785736792994591  0.9754571088439641  1.0000
  O   O7        1.0  0.17005407419960508  0.2574399732009959  0.14763701563577128  1.0000
