data_image0
_chemical_formula_structural       BaTiO3
_chemical_formula_sum              "Ba1 Ti1 O3"
_cell_length_a       4.08814086343044
_cell_length_b       4.09801078299088
_cell_length_c       4.088521957397461
_cell_angle_alpha    89.69532144820187
_cell_angle_beta     90.25481639491358
_cell_angle_gamma    90.33589070932618

_space_group_name_H-M_alt    "P 1"
_space_group_IT_number       1

loop_
  _space_group_symop_operation_xyz
  'x, y, z'

loop_
  _atom_site_type_symbol
  _atom_site_label
  _atom_site_symmetry_multiplicity
  _atom_site_fract_x
  _atom_site_fract_y
  _atom_site_fract_z
  _atom_site_occupancy
  Ba  Ba1       1.0  0.6386741473397822  0.7786885478707231  0.1301544189481858  1.0000
  Ti  Ti1       1.0  0.12360244746152123  0.29433728719229124  0.6451101619303019  1.0000
  O   O1        1.0  0.6677069383667007  0.26136817831115555  0.6130762474223556  1.0000
  O   O2        1.0  0.1552445298505728  0.7483658022273929  0.6137604327939913  1.0000
  O   O3        1.0  0.15523734048895269  0.26157124376849417  0.10101174438428469  1.0000
