data_image0
_chemical_formula_structural       TiBa2TiO6
_chemical_formula_sum              "Ti2 Ba2 O6"
_cell_length_a       4.0579262358426185
_cell_length_b       6.21495279126254
_cell_length_c       7.870169162750244
_cell_angle_alpha    113.06055125510346
_cell_angle_beta     89.99032412682152
_cell_angle_gamma    90.04021865817586

_space_group_name_H-M_alt    "P 1"
_space_group_IT_number       1

loop_
  _space_group_symop_operation_xyz
  'x, y, z'

loop_
  _atom_site_type_symbol
  _atom_site_label
  _atom_site_symmetry_multiplicity
  _atom_site_fract_x
  _atom_site_fract_y
  _atom_site_fract_z
  _atom_site_occupancy
  Ti  Ti1       1.0  0.09130636233199765  0.6673098162688765  0.8824786749658006  1.0000
  Ba  Ba1       1.0  0.591326210097042  0.26662966719601594  0.01430756319572915  1.0000
  Ba  Ba2       1.0  0.0910429172675406  0.7849409414371459  0.4442360330253832  1.0000
  Ti  Ti2       1.0  0.5910682464793298  0.38462035832212094  0.5766751933062847  1.0000
  O   O1        1.0  0.09108172477299878  0.45439189243875117  0.6217634599141616  1.0000
  O   O2        1.0  0.5910426807804445  0.4638681253096528  0.3784422289348432  1.0000
  O   O3        1.0  0.5910333454081005  0.08357487041870944  0.5411354838880995  1.0000
  O   O4        1.0  0.09131733323661795  0.5874234329649999  0.08039325302532195  1.0000
  O   O5        1.0  0.09124738874031268  0.9685230369648372  0.9189591383182817  1.0000
  O   O6        1.0  0.5911918648120423  0.5978551607404474  0.8372955382570668  1.0000
