data_image0
_chemical_formula_structural       OBa2O4Ti2O3BaTiO2
_chemical_formula_sum              "O10 Ba3 Ti3"
_cell_length_a       3.9623775017298764
_cell_length_b       3.9666288657442332
_cell_length_c       15.26649284362793
_cell_angle_alpha    97.4162764052415
_cell_angle_beta     97.41434391686835
_cell_angle_gamma    90.01498097771395

_space_group_name_H-M_alt    "P 1"
_space_group_IT_number       1

loop_
  _space_group_symop_operation_xyz
  'x, y, z'

loop_
  _atom_site_type_symbol
  _atom_site_label
  _atom_site_symmetry_multiplicity
  _atom_site_fract_x
  _atom_site_fract_y
  _atom_site_fract_z
  _atom_site_occupancy
  O   O1        1.0  0.9602002321902512  0.28964054093250047  0.939110761359706  1.0000
  Ba  Ba1       1.0  0.7276865745430783  0.057333630196412876  0.4743486302926039  1.0000
  Ba  Ba2       1.0  0.8648430401813862  0.19422369782250248  0.7492552058183518  1.0000
  O   O2        1.0  0.023366978245663497  0.8533125995504042  0.06604560708933037  1.0000
  O   O3        1.0  0.36780385791255277  0.6972854660960658  0.7555346157484257  1.0000
  O   O4        1.0  0.3008992418097753  0.13049596747632694  0.6212203850592319  1.0000
  O   O5        1.0  0.2361374437102724  0.5658203777316427  0.49133212474127536  1.0000
  Ti  Ti1       1.0  0.29959825693990555  0.6290209640896832  0.6182806424849555  1.0000
  Ti  Ti2       1.0  0.027633771693869418  0.35366612784545004  0.07090742122290992  1.0000
  O   O6        1.0  0.6616641304525563  0.4914908153398735  0.341946272512768  1.0000
  O   O7        1.0  0.16166903102647717  0.9913643366876332  0.34184464761207983  1.0000
  O   O8        1.0  0.5228067954075359  0.3526608667276338  0.06603031163198521  1.0000
  Ba  Ba3       1.0  0.4626809102371571  0.7909621764559616  0.9429753165026246  1.0000
  Ti  Ti3       1.0  0.14954800081569833  0.4793475400657233  0.31791447579173565  1.0000
  O   O9        1.0  0.8008879351763065  0.6305669015489157  0.6212804204273017  1.0000
  O   O10       1.0  0.09100054963492994  0.4211076441139001  0.20139592245906077  1.0000
