data_image0
_chemical_formula_structural       BaTiBaTiO4
_chemical_formula_sum              "Ba2 Ti2 O4"
_cell_length_a       4.152491603841698
_cell_length_b       5.845725450921721
_cell_length_c       6.282489776611328
_cell_angle_alpha    117.76089037721869
_cell_angle_beta     109.21745609341706
_cell_angle_gamma    89.95182808070982

_space_group_name_H-M_alt    "P 1"
_space_group_IT_number       1

loop_
  _space_group_symop_operation_xyz
  'x, y, z'

loop_
  _atom_site_type_symbol
  _atom_site_label
  _atom_site_symmetry_multiplicity
  _atom_site_fract_x
  _atom_site_fract_y
  _atom_site_fract_z
  _atom_site_occupancy
  Ba  Ba1       1.0  0.6612622495428329  0.5569168064389864  0.5803765317983927  1.0000
  Ti  Ti1       1.0  0.20179287553433156  0.09743565052139878  0.6616152681690985  1.0000
  Ba  Ba2       1.0  0.44901708594271295  0.8441501628034574  0.15502826056808341  1.0000
  Ti  Ti2       1.0  0.9085297061591882  0.3034384891489267  0.07371828165868463  1.0000
  O   O1        1.0  0.05508018912277928  0.7003976821969768  0.36753555162773177  1.0000
  O   O2        1.0  0.40090255910233574  0.29565461110843716  0.058505444841188414  1.0000
  O   O3        1.0  0.055292819812210056  0.20063764940030468  0.36799027070916024  1.0000
  O   O4        1.0  0.709443955387568  0.10482021428914856  0.6768433225716494  1.0000
