data_image0
_chemical_formula_structural       BaOBaO4Ti2O
_chemical_formula_sum              "Ba2 O6 Ti2"
_cell_length_a       5.496235653987172
_cell_length_b       5.496499548030315
_cell_length_c       4.774123668670654
_cell_angle_alpha    90.03392122178582
_cell_angle_beta     90.07392564247101
_cell_angle_gamma    90.06882349042455

_space_group_name_H-M_alt    "P 1"
_space_group_IT_number       1

loop_
  _space_group_symop_operation_xyz
  'x, y, z'

loop_
  _atom_site_type_symbol
  _atom_site_label
  _atom_site_symmetry_multiplicity
  _atom_site_fract_x
  _atom_site_fract_y
  _atom_site_fract_z
  _atom_site_occupancy
  Ba  Ba1       1.0  0.7869054078756913  0.8786348956964146  0.8728357006604106  1.0000
  O   O1        1.0  0.036683280422825176  0.12843287138324533  0.45616375591766833  1.0000
  Ba  Ba2       1.0  0.28697537780618626  0.37862559413605623  0.8721521855711701  1.0000
  O   O2        1.0  0.5367919607308284  0.12850183384697872  0.45637051048557536  1.0000
  O   O3        1.0  0.7868090719047421  0.37851827424312257  0.9999871471178249  1.0000
  O   O4        1.0  0.28666316508623874  0.878492008581708  5.689385962602391e-05  1.0000
  O   O5        1.0  0.036716802975754095  0.6285811838832813  0.4565735366612213  1.0000
  Ti  Ti1       1.0  0.7869417640069928  0.37865220949504047  0.3753218995009806  1.0000
  Ti  Ti2       1.0  0.28688148443786954  0.878635284374117  0.3753752104843437  1.0000
  O   O6        1.0  0.5367406401588918  0.6284490267323798  0.45602566095647423  1.0000
