data_image0
_chemical_formula_structural       BaTiO2
_chemical_formula_sum              "Ba1 Ti1 O2"
_cell_length_a       4.077482700778931
_cell_length_b       4.0784606893443245
_cell_length_c       6.714850425720215
_cell_angle_alpha    72.2578893432788
_cell_angle_beta     72.2760369263122
_cell_angle_gamma    60.03230939733761

_space_group_name_H-M_alt    "P 1"
_space_group_IT_number       1

loop_
  _space_group_symop_operation_xyz
  'x, y, z'

loop_
  _atom_site_type_symbol
  _atom_site_label
  _atom_site_symmetry_multiplicity
  _atom_site_fract_x
  _atom_site_fract_y
  _atom_site_fract_z
  _atom_site_occupancy
  Ba  Ba1       1.0  0.36324118569445885  0.06711405966695556  0.9225603151090824  1.0000
  Ti  Ti1       1.0  0.8634782689642985  0.5669070112802319  0.4225768161419513  1.0000
  O   O1        1.0  0.9608747655759133  0.6645825121950159  0.12958516558554198  1.0000
  O   O2        1.0  0.7656074613225644  0.4695805864877326  0.7155757841574142  1.0000
