data_image0
_chemical_formula_structural       Ba2Ti2O3BaO4
_chemical_formula_sum              "Ba3 Ti2 O7"
_cell_length_a       4.06479799389272
_cell_length_b       4.065091634000936
_cell_length_c       11.078863143920897
_cell_angle_alpha    100.56394932447252
_cell_angle_beta     100.5487653076149
_cell_angle_gamma    89.89099959044546

_space_group_name_H-M_alt    "P 1"
_space_group_IT_number       1

loop_
  _space_group_symop_operation_xyz
  'x, y, z'

loop_
  _atom_site_type_symbol
  _atom_site_label
  _atom_site_symmetry_multiplicity
  _atom_site_fract_x
  _atom_site_fract_y
  _atom_site_fract_z
  _atom_site_occupancy
  Ba  Ba1       1.0  0.22918923401180255  0.9617285273355594  0.835662351109497  1.0000
  Ba  Ba2       1.0  0.045562714995909276  0.7780739303145715  0.4694749786561098  1.0000
  Ti  Ti1       1.0  0.6474325817863577  0.3801588954267153  0.6461230445191517  1.0000
  Ti  Ti2       1.0  0.8369208131098159  0.5692924726497094  0.025277207635126257  1.0000
  O   O1        1.0  0.3015306607955602  0.5444600977517046  0.02451729325820327  1.0000
  O   O2        1.0  0.8119975846379754  0.034107782886196224  0.02452084374930661  1.0000
  O   O3        1.0  0.900874738987388  0.6337139036719682  0.20810291000376116  1.0000
  Ba  Ba3       1.0  0.41147035847571567  0.1438944888307535  0.20193940926782705  1.0000
  O   O4        1.0  0.11290393527489313  0.3559127373073158  0.6468093750088266  1.0000
  O   O5        1.0  0.6232817951358294  0.8455741937720699  0.6468048905407799  1.0000
  O   O6        1.0  0.5292863053524653  0.26179858752974094  0.4632589428465564  1.0000
  O   O7        1.0  0.7130345790967849  0.44569378816518374  0.8356647627805553  1.0000
