data_image527
_chemical_formula_structural       Ba3OBaO5BaTiBaOBa
_chemical_formula_sum              "Ba7 O7 Ti1"
_cell_length_a       6.161004371137025
_cell_length_b       7.443108145115857
_cell_length_c       10.278803825378418
_cell_angle_alpha    72.2678461467018
_cell_angle_beta     69.06696666858026
_cell_angle_gamma    91.76572248598828

_space_group_name_H-M_alt    "P 1"
_space_group_IT_number       1

loop_
  _space_group_symop_operation_xyz
  'x, y, z'

loop_
  _atom_site_type_symbol
  _atom_site_label
  _atom_site_symmetry_multiplicity
  _atom_site_fract_x
  _atom_site_fract_y
  _atom_site_fract_z
  _atom_site_occupancy
  Ba  Ba1       1.0  0.4637596309185028  0.8356385827064514  0.7387405633926392  1.0000
  Ba  Ba2       1.0  0.5972699522972107  0.024103984236717224  0.3035427927970886  1.0000
  Ba  Ba3       1.0  0.9673224091529846  0.5375203490257262  0.7418664693832397  1.0000
  O   O1        1.0  0.5958643555641174  0.6296798586845398  0.9523648023605347  1.0000
  Ba  Ba4       1.0  0.8509595394134521  0.9663946032524108  0.9239424467086792  1.0000
  O   O2        1.0  0.8865144848823545  0.3703308701515197  0.23714990913867953  1.0000
  O   O3        1.0  0.6894064545631408  0.7212661504745482  0.18572539091110232  1.0000
  O   O4        1.0  0.4272312521934509  0.36643257737159723  0.2407420426607132  1.0000
  O   O5        1.0  0.7904571890830994  0.27517953515052795  0.014796354807913303  1.0000
  O   O6        1.0  0.3866629898548126  0.7196294665336608  0.5513519644737244  1.0000
  Ba  Ba5       1.0  0.5485209226608276  0.4613386690616607  0.44903913140296936  1.0000
  Ti  Ti1       1.0  0.7419358491897583  0.49416467547416687  0.09735167026519775  1.0000
  Ba  Ba6       1.0  0.27850171923637385  0.3127695024013519  0.0364206060767174  1.0000
  O   O7        1.0  0.07055775821208954  0.6390405893325806  0.9449073672294617  1.0000
  Ba  Ba7       1.0  0.19741719961166382  0.6512012481689453  0.185892790555954  1.0000
