data_image111
_chemical_formula_structural       BaTiO2Ba2O2TiO3TiO2TiO2
_chemical_formula_sum              "Ba3 Ti4 O11"
_cell_length_a       4.882045211808918
_cell_length_b       5.900885261770678
_cell_length_c       10.759870529174805
_cell_angle_alpha    90.79502967494705
_cell_angle_beta     101.98902606644818
_cell_angle_gamma    89.46030147286429

_space_group_name_H-M_alt    "P 1"
_space_group_IT_number       1

loop_
  _space_group_symop_operation_xyz
  'x, y, z'

loop_
  _atom_site_type_symbol
  _atom_site_label
  _atom_site_symmetry_multiplicity
  _atom_site_fract_x
  _atom_site_fract_y
  _atom_site_fract_z
  _atom_site_occupancy
  Ba  Ba1       1.0  0.9210806488990784  0.3310306966304779  0.4566490352153778  1.0000
  Ti  Ti1       1.0  0.5167127251625061  0.826558530330658  0.5386196970939636  1.0000
  O   O1        1.0  0.7409073114395142  0.3251766860485077  0.9403641819953917  1.0000
  O   O2        1.0  0.17275045812129974  0.013921113684773445  0.9162377119064331  1.0000
  Ba  Ba2       1.0  0.6793729662895203  0.8093696832656861  0.948097288608551  1.0000
  Ba  Ba3       1.0  0.27935075759887695  0.8037837743759155  0.22834762930870056  1.0000
  O   O3        1.0  0.04952074959874153  0.6164994835853577  0.813147246837616  1.0000
  O   O4        1.0  0.29764100909233093  0.42866531014442444  0.04690524935722351  1.0000
  Ti  Ti2       1.0  0.6533328294754028  0.32914209365844727  0.10524983704090118  1.0000
  O   O5        1.0  0.4022010564804077  0.060276322066783905  0.4371720254421234  1.0000
  O   O6        1.0  0.40029484033584595  0.5811372399330139  0.447122186422348  1.0000
  O   O7        1.0  0.73263019323349  0.053917907178401954  0.1726062297821045  1.0000
  Ti  Ti3       1.0  0.06901218742132187  0.3241720497608185  0.8820205330848694  1.0000
  O   O8        1.0  0.9005439877510071  0.8109659552574158  0.5627151727676392  1.0000
  O   O9        1.0  0.4566957950592041  0.8627374768257142  0.7067031264305115  1.0000
  Ti  Ti4       1.0  0.09598361700773239  0.8906599283218385  0.7300586104393005  1.0000
  O   O10       1.0  0.9916497468948364  0.19929499924182892  0.7083253860473633  1.0000
  O   O11       1.0  0.8079059720039368  0.5440905690193176  0.2089725285768509  1.0000
