data_image515
_chemical_formula_structural       Ba2TiOTiO3
_chemical_formula_sum              "Ba2 Ti2 O4"
_cell_length_a       5.518683911984941
_cell_length_b       5.839927199412779
_cell_length_c       5.842792987823486
_cell_angle_alpha    97.80026952815315
_cell_angle_beta     112.61847878206441
_cell_angle_gamma    112.91086865887942

_space_group_name_H-M_alt    "P 1"
_space_group_IT_number       1

loop_
  _space_group_symop_operation_xyz
  'x, y, z'

loop_
  _atom_site_type_symbol
  _atom_site_label
  _atom_site_symmetry_multiplicity
  _atom_site_fract_x
  _atom_site_fract_y
  _atom_site_fract_z
  _atom_site_occupancy
  Ba  Ba1       1.0  0.9354516863822937  0.08856271952390671  0.8347136378288269  1.0000
  Ba  Ba2       1.0  0.43615806102752686  0.37218084931373596  0.5508275032043457  1.0000
  Ti  Ti1       1.0  0.43572333455085754  0.7720469236373901  0.1521245241165161  1.0000
  O   O1        1.0  0.37275180220603943  0.8367699980735779  0.4509948194026947  1.0000
  Ti  Ti2       1.0  0.9363083839416504  0.6880066394805908  0.23472775518894196  1.0000
  O   O2        1.0  0.9985336661338806  0.622714102268219  0.9342662692070007  1.0000
  O   O3        1.0  0.872945249080658  0.9882790446281433  0.3010360300540924  1.0000
  O   O4        1.0  0.498896986246109  0.4720457196235656  0.08453091979026794  1.0000
