data_image393
_chemical_formula_structural       OBaTiO
_chemical_formula_sum              "O2 Ba1 Ti1"
_cell_length_a       3.3108572591754486
_cell_length_b       3.310882915978705
_cell_length_c       6.305821418762207
_cell_angle_alpha    74.808739541219
_cell_angle_beta     74.8277534288012
_cell_angle_gamma    60.073295598228576

_space_group_name_H-M_alt    "P 1"
_space_group_IT_number       1

loop_
  _space_group_symop_operation_xyz
  'x, y, z'

loop_
  _atom_site_type_symbol
  _atom_site_label
  _atom_site_symmetry_multiplicity
  _atom_site_fract_x
  _atom_site_fract_y
  _atom_site_fract_z
  _atom_site_occupancy
  O   O1        1.0  0.5411993861198425  0.20093768835067746  0.229623943567276  1.0000
  Ba  Ba1       1.0  0.31876036524772655  0.9788373708724974  0.8967357873916626  1.0000
  Ti  Ti1       1.0  0.8190966844558716  0.4786534011363983  0.39693358540534973  1.0000
  O   O2        1.0  0.09590023010969162  0.7566539645195007  0.5639849901199341  1.0000
