data_image517
_chemical_formula_structural       TiBaO2
_chemical_formula_sum              "Ti1 Ba1 O2"
_cell_length_a       3.285137501350507
_cell_length_b       3.28508125139599
_cell_length_c       6.473161697387695
_cell_angle_alpha    75.30463938954908
_cell_angle_beta     75.30317712970341
_cell_angle_gamma    60.03459649972273

_space_group_name_H-M_alt    "P 1"
_space_group_IT_number       1

loop_
  _space_group_symop_operation_xyz
  'x, y, z'

loop_
  _atom_site_type_symbol
  _atom_site_label
  _atom_site_symmetry_multiplicity
  _atom_site_fract_x
  _atom_site_fract_y
  _atom_site_fract_z
  _atom_site_occupancy
  Ti  Ti1       1.0  0.5404629707336426  0.03110732883214951  0.11949396133422853  1.0000
  Ba  Ba1       1.0  0.715153157711029  0.20542912185192108  0.5978849530220032  1.0000
  O   O1        1.0  0.15367607772350314  0.6438520550727844  0.2818840742111206  1.0000
  O   O2        1.0  0.9295247793197631  0.41990497708320623  0.9527183175086976  1.0000
