data_image511
_chemical_formula_structural       TiBaOBaO5Ti
_chemical_formula_sum              "Ti2 Ba2 O6"
_cell_length_a       4.276575903738969
_cell_length_b       5.648150470518509
_cell_length_c       5.644120693206787
_cell_angle_alpha    89.95258733395453
_cell_angle_beta     89.96462212441578
_cell_angle_gamma    89.94948642553716

_space_group_name_H-M_alt    "P 1"
_space_group_IT_number       1

loop_
  _space_group_symop_operation_xyz
  'x, y, z'

loop_
  _atom_site_type_symbol
  _atom_site_label
  _atom_site_symmetry_multiplicity
  _atom_site_fract_x
  _atom_site_fract_y
  _atom_site_fract_z
  _atom_site_occupancy
  Ti  Ti1       1.0  0.31720200181007385  0.22980962693691254  0.2694830000400543  1.0000
  Ba  Ba1       1.0  0.8362692594528198  0.23011241853237152  0.7693337202072144  1.0000
  O   O1        1.0  0.37338024377822876  0.4801312088966369  0.5190649628639221  1.0000
  Ba  Ba2       1.0  0.8361274003982544  0.7298313975334166  0.26941266655921936  1.0000
  O   O2        1.0  0.3733055889606476  0.9806132912635802  0.5192729234695435  1.0000
  O   O3        1.0  0.37267976999282837  0.9801964163780211  0.019448259845376015  1.0000
  O   O4        1.0  0.8977313041687012  0.23024599254131317  0.2695748805999756  1.0000
  O   O5        1.0  0.8977600336074829  0.7303001880645752  0.769516110420227  1.0000
  O   O6        1.0  0.37338787317276  0.48020946979522705  0.019557487219572067  1.0000
  Ti  Ti2       1.0  0.31729790568351746  0.7299844622612  0.7698248624801636  1.0000
