data_image199
_chemical_formula_structural       BaTiO2
_chemical_formula_sum              "Ba1 Ti1 O2"
_cell_length_a       3.3041025481079105
_cell_length_b       3.3055188156376323
_cell_length_c       6.3036370277404785
_cell_angle_alpha    74.82552053979545
_cell_angle_beta     74.82121141811686
_cell_angle_gamma    60.0304025467951

_space_group_name_H-M_alt    "P 1"
_space_group_IT_number       1

loop_
  _space_group_symop_operation_xyz
  'x, y, z'

loop_
  _atom_site_type_symbol
  _atom_site_label
  _atom_site_symmetry_multiplicity
  _atom_site_fract_x
  _atom_site_fract_y
  _atom_site_fract_z
  _atom_site_occupancy
  Ba  Ba1       1.0  0.1559458225965499  0.7477747797966005  0.09082385897636414  1.0000
  Ti  Ti1       1.0  0.6559951901435852  0.24796371161937714  0.5898492932319641  1.0000
  O   O1        1.0  0.3783769905567169  0.970553457736969  0.42268168926239014  1.0000
  O   O2        1.0  0.9335955381393433  0.5249176621437073  0.7583643198013306  1.0000
