data_image434
_chemical_formula_structural       OBa2TiO2BaOTiO3TiO3
_chemical_formula_sum              "O10 Ba3 Ti3"
_cell_length_a       3.9175378184786394
_cell_length_b       3.9195573928985494
_cell_length_c       15.406429290771484
_cell_angle_alpha    89.98998261736497
_cell_angle_beta     90.04260239702441
_cell_angle_gamma    90.0455940201247

_space_group_name_H-M_alt    "P 1"
_space_group_IT_number       1

loop_
  _space_group_symop_operation_xyz
  'x, y, z'

loop_
  _atom_site_type_symbol
  _atom_site_label
  _atom_site_symmetry_multiplicity
  _atom_site_fract_x
  _atom_site_fract_y
  _atom_site_fract_z
  _atom_site_occupancy
  O   O1        1.0  0.36685621738433843  0.4527797996997833  0.4279491305351258  1.0000
  Ba  Ba1       1.0  0.8671703338623048  0.45357373356819153  0.8542023897171022  1.0000
  Ba  Ba2       1.0  0.8661046028137208  0.453278124332428  0.2709358036518097  1.0000
  Ti  Ti1       1.0  0.3667027056217194  0.9529843926429749  0.42257177829742437  1.0000
  O   O2        1.0  0.36711266636848455  0.9523208737373352  0.12417101860046388  1.0000
  O   O3        1.0  0.36667859554290777  0.9529271721839905  0.5636745691299438  1.0000
  Ba  Ba3       1.0  0.8673631548881532  0.45264407992362976  0.5665811896324158  1.0000
  O   O4        1.0  0.8660976290702821  0.9523506760597228  0.4278420805931092  1.0000
  Ti  Ti2       1.0  0.3674153089523316  0.9529436826705933  0.011100893840193748  1.0000
  O   O5        1.0  0.3659694194793702  0.9533824920654297  0.3010822534561157  1.0000
  O   O6        1.0  0.867340922355652  0.9534134864807129  0.9810802340507508  1.0000
  O   O7        1.0  0.36669757962226873  0.452798068523407  0.6995674967765808  1.0000
  Ti  Ti3       1.0  0.36707752943038946  0.9532996416091919  0.7087315917015076  1.0000
  O   O8        1.0  0.36668086051940924  0.953595757484436  0.8270163536071778  1.0000
  O   O9        1.0  0.3681261539459229  0.45321553945541376  0.9809539318084718  1.0000
  O   O10       1.0  0.8665838837623597  0.952875554561615  0.6996422410011292  1.0000
