data_image372
_chemical_formula_structural       Ba2OTiBaTiO2BaO5
_chemical_formula_sum              "Ba4 O8 Ti2"
_cell_length_a       4.040648800459912
_cell_length_b       4.041553114622778
_cell_length_c       14.639763832092285
_cell_angle_alpha    89.9876330321929
_cell_angle_beta     89.9764929925513
_cell_angle_gamma    90.03715190089392

_space_group_name_H-M_alt    "P 1"
_space_group_IT_number       1

loop_
  _space_group_symop_operation_xyz
  'x, y, z'

loop_
  _atom_site_type_symbol
  _atom_site_label
  _atom_site_symmetry_multiplicity
  _atom_site_fract_x
  _atom_site_fract_y
  _atom_site_fract_z
  _atom_site_occupancy
  Ba  Ba1       1.0  0.9888546466827393  0.9037971496582031  0.49024626612663275  1.0000
  Ba  Ba2       1.0  0.48818886280059814  0.4042239189147949  0.9821807742118837  1.0000
  O   O1        1.0  0.48884618282318115  0.9038651585578918  0.35649290680885315  1.0000
  Ti  Ti1       1.0  0.9892385005950928  0.903734028339386  0.8122974634170533  1.0000
  Ba  Ba3       1.0  0.4887087345123291  0.4039813280105591  0.6936771273612976  1.0000
  Ti  Ti2       1.0  0.48929813504219055  0.40365469455718994  0.3706699311733246  1.0000
  O   O2        1.0  0.4887259602546692  0.40396916866302496  0.5021071434020996  1.0000
  O   O3        1.0  0.9884090423583984  0.4037087261676789  0.3566640317440033  1.0000
  Ba  Ba4       1.0  0.9886051416397095  0.904135525226593  0.19962589442729953  1.0000
  O   O4        1.0  0.48857825994491577  0.9037705063819885  0.09065088629722595  1.0000
  O   O5        1.0  0.988612711429596  0.9039037823677063  0.6806201338768005  1.0000
  O   O6        1.0  0.9876394271850586  0.40443354845047  0.09104066342115402  1.0000
  O   O7        1.0  0.4886358976364136  0.9039024114608765  0.8262895345687867  1.0000
  O   O8        1.0  0.9888158440589905  0.4042024910449982  0.8259297013282777  1.0000
