data_image353
_chemical_formula_structural       OTiBaO
_chemical_formula_sum              "O2 Ti1 Ba1"
_cell_length_a       3.2670094617790904
_cell_length_b       3.266802777602409
_cell_length_c       6.495731353759766
_cell_angle_alpha    75.4285574687291
_cell_angle_beta     75.44287373862203
_cell_angle_gamma    60.055252898682056

_space_group_name_H-M_alt    "P 1"
_space_group_IT_number       1

loop_
  _space_group_symop_operation_xyz
  'x, y, z'

loop_
  _atom_site_type_symbol
  _atom_site_label
  _atom_site_symmetry_multiplicity
  _atom_site_fract_x
  _atom_site_fract_y
  _atom_site_fract_z
  _atom_site_occupancy
  O   O1        1.0  0.14449299871921542  0.421140193939209  0.43789893388748174  1.0000
  Ti  Ti1       1.0  0.7560905814170837  0.0325208455324173  0.6040685176849365  1.0000
  Ba  Ba1       1.0  0.9302906990051268  0.20691750943660733  0.082549162209034  1.0000
  O   O2        1.0  0.36882564425468445  0.6454910039901733  0.7656102180480957  1.0000
