data_image285
_chemical_formula_structural       Ba2TiBaO2BaTiO5
_chemical_formula_sum              "Ba4 Ti2 O7"
_cell_length_a       5.91882602743359
_cell_length_b       6.411092707012288
_cell_length_c       8.349905014038086
_cell_angle_alpha    76.73037899776362
_cell_angle_beta     84.72741030375308
_cell_angle_gamma    66.02370261548255

_space_group_name_H-M_alt    "P 1"
_space_group_IT_number       1

loop_
  _space_group_symop_operation_xyz
  'x, y, z'

loop_
  _atom_site_type_symbol
  _atom_site_label
  _atom_site_symmetry_multiplicity
  _atom_site_fract_x
  _atom_site_fract_y
  _atom_site_fract_z
  _atom_site_occupancy
  Ba  Ba1       1.0  0.3116653263568878  0.18508711457252502  0.060389067977666855  1.0000
  Ba  Ba2       1.0  0.9527530074119568  0.7832342982292174  0.3361600935459137  1.0000
  Ti  Ti1       1.0  0.6237154603004457  0.4752947390079498  0.16041404008865356  1.0000
  Ba  Ba3       1.0  0.8168020844459536  0.7861340641975402  0.8096876740455627  1.0000
  O   O1        1.0  0.20977522432804113  0.744588792324066  0.62456876039505  1.0000
  O   O2        1.0  0.9166030287742615  0.22574380040168762  0.24486395716667175  1.0000
  Ba  Ba4       1.0  0.174387589097023  0.18860037624835968  0.5340940952301025  1.0000
  Ti  Ti2       1.0  0.5031505823135376  0.4961931109428405  0.7094163298606873  1.0000
  O   O3        1.0  0.355511873960495  0.4228532016277313  0.2729332149028778  1.0000
  O   O4        1.0  0.7715981602668762  0.5491792559623718  0.5963548421859741  1.0000
  O   O5        1.0  0.48034006357192993  0.21085032820701596  0.7310517430305481  1.0000
  O   O6        1.0  0.5636876821517944  0.4852829575538635  0.9352563619613647  1.0000
  O   O7        1.0  0.6473628878593444  0.7593007683753967  0.13954570889472961  1.0000
