data_image277
_chemical_formula_structural       TiBaO2
_chemical_formula_sum              "Ti1 Ba1 O2"
_cell_length_a       3.3080261842675984
_cell_length_b       3.3106584969806203
_cell_length_c       6.309165000915527
_cell_angle_alpha    74.79146587282187
_cell_angle_beta     74.78737438255206
_cell_angle_gamma    60.037875388778005

_space_group_name_H-M_alt    "P 1"
_space_group_IT_number       1

loop_
  _space_group_symop_operation_xyz
  'x, y, z'

loop_
  _atom_site_type_symbol
  _atom_site_label
  _atom_site_symmetry_multiplicity
  _atom_site_fract_x
  _atom_site_fract_y
  _atom_site_fract_z
  _atom_site_occupancy
  Ti  Ti1       1.0  0.3743273019790649  0.773949682712555  0.7162858247756957  1.0000
  Ba  Ba1       1.0  0.8735397458076478  0.2748226523399353  0.21590968966484067  1.0000
  O   O1        1.0  0.6506040692329408  0.05212667956948281  0.8842689394950866  1.0000
  O   O2        1.0  0.09660774469375612  0.4977783560752869  0.5479628443717957  1.0000
