data_image176
_chemical_formula_structural       TiO2Ba
_chemical_formula_sum              "Ti1 O2 Ba1"
_cell_length_a       3.3105044398786916
_cell_length_b       3.310708393701169
_cell_length_c       6.268747329711914
_cell_angle_alpha    74.73574561023423
_cell_angle_beta     74.73336759038568
_cell_angle_gamma    60.056433853719405

_space_group_name_H-M_alt    "P 1"
_space_group_IT_number       1

loop_
  _space_group_symop_operation_xyz
  'x, y, z'

loop_
  _atom_site_type_symbol
  _atom_site_label
  _atom_site_symmetry_multiplicity
  _atom_site_fract_x
  _atom_site_fract_y
  _atom_site_fract_z
  _atom_site_occupancy
  Ti  Ti1       1.0  0.6686233878135681  0.7060672044754027  0.25128793716430664  1.0000
  O   O1        1.0  0.9458385109901427  0.982822299003601  0.41947484016418457  1.0000
  O   O2        1.0  0.391446053981781  0.4283689558506012  0.08303247392177582  1.0000
  Ba  Ba1       1.0  0.16844123601913452  0.20556774735450745  0.7513054013252258  1.0000
