data_image574
_chemical_formula_structural       BaTi2OBaO2BaO3
_chemical_formula_sum              "Ba3 Ti2 O6"
_cell_length_a       4.026034906574756
_cell_length_b       4.0267973216105535
_cell_length_c       11.271574020385742
_cell_angle_alpha    100.22464562465926
_cell_angle_beta     100.24797710022582
_cell_angle_gamma    90.00498188515667

_space_group_name_H-M_alt    "P 1"
_space_group_IT_number       1

loop_
  _space_group_symop_operation_xyz
  'x, y, z'

loop_
  _atom_site_type_symbol
  _atom_site_label
  _atom_site_symmetry_multiplicity
  _atom_site_fract_x
  _atom_site_fract_y
  _atom_site_fract_z
  _atom_site_occupancy
  Ba  Ba1       1.0  0.32352983951568604  0.40544426441192627  0.8529764413833618  1.0000
  Ti  Ti1       1.0  0.10508255660533905  0.18728864192962646  0.4168321192264557  1.0000
  Ti  Ti2       1.0  0.9067725539207458  0.9884867668151855  0.01936192810535431  1.0000
  O   O1        1.0  0.5974606871604919  0.1796451210975647  0.40222683548927307  1.0000
  Ba  Ba2       1.0  0.5058718323707581  0.58808833360672  0.21809934079647064  1.0000
  O   O2        1.0  0.4142092764377594  0.9958596229553223  0.03384784981608391  1.0000
  O   O3        1.0  0.19546613097190857  0.27758195996284485  0.596472442150116  1.0000
  Ba  Ba3       1.0  0.6882339119911194  0.7704419493675231  0.5830005407333374  1.0000
  O   O4        1.0  0.9137344360351562  0.49604496359825134  0.033880941569805166  1.0000
  O   O5        1.0  0.0977744311094284  0.6798536777496338  0.40219050645828247  1.0000
  O   O6        1.0  0.8162647485733032  0.8983370661735535  0.839506983757019  1.0000
