data_image553
_chemical_formula_structural       BaOTiO3
_chemical_formula_sum              "Ba1 O4 Ti1"
_cell_length_a       3.927732216043248
_cell_length_b       4.188034195713664
_cell_length_c       5.135887622833252
_cell_angle_alpha    90.39836649991084
_cell_angle_beta     95.46653073425622
_cell_angle_gamma    89.94499899035353

_space_group_name_H-M_alt    "P 1"
_space_group_IT_number       1

loop_
  _space_group_symop_operation_xyz
  'x, y, z'

loop_
  _atom_site_type_symbol
  _atom_site_label
  _atom_site_symmetry_multiplicity
  _atom_site_fract_x
  _atom_site_fract_y
  _atom_site_fract_z
  _atom_site_occupancy
  Ba  Ba1       1.0  0.8465991616249084  0.03476981818675995  0.9034239053726196  1.0000
  O   O1        1.0  0.40492209792137146  0.5470455288887023  0.8870922923088074  1.0000
  Ti  Ti1       1.0  0.2965061366558075  0.5000681281089782  0.4892129600048065  1.0000
  O   O2        1.0  0.20484194159507751  0.5422594547271729  0.1202123761177063  1.0000
  O   O3        1.0  0.8031610250473022  0.5497322678565979  0.5153911709785461  1.0000
  O   O4        1.0  0.2978862524032593  0.06257503479719162  0.5154519081115723  1.0000
