data_image78
_chemical_formula_structural       BaO2Ti
_chemical_formula_sum              "Ba1 O2 Ti1"
_cell_length_a       4.089797602368839
_cell_length_b       4.091830307408035
_cell_length_c       6.739809989929199
_cell_angle_alpha    72.29215533330141
_cell_angle_beta     72.31753788286747
_cell_angle_gamma    59.97418388511619

_space_group_name_H-M_alt    "P 1"
_space_group_IT_number       1

loop_
  _space_group_symop_operation_xyz
  'x, y, z'

loop_
  _atom_site_type_symbol
  _atom_site_label
  _atom_site_symmetry_multiplicity
  _atom_site_fract_x
  _atom_site_fract_y
  _atom_site_fract_z
  _atom_site_occupancy
  Ba  Ba1       1.0  0.548345148563385  0.07553768903017044  0.3780929744243622  1.0000
  O   O1        1.0  0.9553658366203308  0.4827122688293457  0.157671719789505  1.0000
  O   O2        1.0  0.14142419397830963  0.6683273315429688  0.5978425741195679  1.0000
  Ti  Ti1       1.0  0.048058044165372904  0.5751226544380187  0.8781329393386842  1.0000
