data_image383
_chemical_formula_structural       BaOBaTiO2
_chemical_formula_sum              "Ba2 O3 Ti1"
_cell_length_a       3.961491960453374
_cell_length_b       4.02314712446865
_cell_length_c       7.3875603675842285
_cell_angle_alpha    105.74862889730697
_cell_angle_beta     105.54292386090074
_cell_angle_gamma    90.00020726809313

_space_group_name_H-M_alt    "P 1"
_space_group_IT_number       1

loop_
  _space_group_symop_operation_xyz
  'x, y, z'

loop_
  _atom_site_type_symbol
  _atom_site_label
  _atom_site_symmetry_multiplicity
  _atom_site_fract_x
  _atom_site_fract_y
  _atom_site_fract_z
  _atom_site_occupancy
  Ba  Ba1       1.0  0.267196923494339  0.8774602413177491  0.21247127652168274  1.0000
  O   O1        1.0  0.9131677746772766  0.02348998934030533  0.5051066875457764  1.0000
  Ba  Ba2       1.0  0.5594080686569214  0.1702656000852585  0.7979452610015869  1.0000
  Ti  Ti1       1.0  0.9135273694992065  0.5243831276893616  0.5053157210350037  1.0000
  O   O2        1.0  0.05918654426932336  0.6694499850273133  0.7956576943397522  1.0000
  O   O3        1.0  0.7673544883728027  0.37848132848739624  0.21495036780834198  1.0000
