data_image309
_chemical_formula_structural       BaTiBaOBaOBaO2TiO2
_chemical_formula_sum              "Ba4 Ti2 O6"
_cell_length_a       4.041975030607402
_cell_length_b       4.041995116073517
_cell_length_c       13.963144302368164
_cell_angle_alpha    89.98952499492624
_cell_angle_beta     90.00387522180456
_cell_angle_gamma    90.04532081174763

_space_group_name_H-M_alt    "P 1"
_space_group_IT_number       1

loop_
  _space_group_symop_operation_xyz
  'x, y, z'

loop_
  _atom_site_type_symbol
  _atom_site_label
  _atom_site_symmetry_multiplicity
  _atom_site_fract_x
  _atom_site_fract_y
  _atom_site_fract_z
  _atom_site_occupancy
  Ba  Ba1       1.0  0.6474844813346863  0.3649787902832031  0.7691760063171387  1.0000
  Ti  Ti1       1.0  0.14722631871700287  0.8652484416961671  0.8952584862709045  1.0000
  Ba  Ba2       1.0  0.6472485065460205  0.36557692289352417  0.050186410546302795  1.0000
  O   O1        1.0  0.14756205677986145  0.8650418519973755  0.7545688152313232  1.0000
  Ba  Ba3       1.0  0.1479933261871338  0.8661370873451234  0.549741804599762  1.0000
  O   O2        1.0  0.14730121195316315  0.3652232885360718  0.19341230392456055  1.0000
  Ba  Ba4       1.0  0.6472723484039307  0.3653680384159088  0.3306659162044525  1.0000
  O   O3        1.0  0.6469584107398987  0.8650439977645874  0.19372160732746124  1.0000
  O   O4        1.0  0.6477600932121277  0.8650875091552735  0.9060755968093872  1.0000
  Ti  Ti2       1.0  0.14711463451385498  0.865163803100586  0.20463548600673676  1.0000
  O   O5        1.0  0.1471531242132187  0.8655948042869568  0.3468340337276459  1.0000
  O   O6        1.0  0.14751753211021423  0.3650032877922058  0.9064671993255615  1.0000
