data_image142
_chemical_formula_structural       TiO2BaO
_chemical_formula_sum              "Ti1 O3 Ba1"
_cell_length_a       4.0755461122594445
_cell_length_b       4.090270774830209
_cell_length_c       4.082381248474121
_cell_angle_alpha    90.35271350177426
_cell_angle_beta     90.37969951712674
_cell_angle_gamma    89.68989825211185

_space_group_name_H-M_alt    "P 1"
_space_group_IT_number       1

loop_
  _space_group_symop_operation_xyz
  'x, y, z'

loop_
  _atom_site_type_symbol
  _atom_site_label
  _atom_site_symmetry_multiplicity
  _atom_site_fract_x
  _atom_site_fract_y
  _atom_site_fract_z
  _atom_site_occupancy
  Ti  Ti1       1.0  0.6128751635551453  0.4280408322811126  0.07718855887651443  1.0000
  O   O1        1.0  0.5798762440681458  0.8834087252616882  0.10997775942087173  1.0000
  O   O2        1.0  0.5801773071289062  0.3962408304214477  0.6204810738563538  1.0000
  Ba  Ba1       1.0  0.09614095836877823  0.9122630953788756  0.5926820635795593  1.0000
  O   O3        1.0  0.06878164410591125  0.3949273824691772  0.11093523353338242  1.0000
