data_image456
_chemical_formula_structural       TiBaO2
_chemical_formula_sum              "Ti1 Ba1 O2"
_cell_length_a       3.8862706168579852
_cell_length_b       4.405886288256265
_cell_length_c       4.440544605255127
_cell_angle_alpha    89.88615009328778
_cell_angle_beta     89.73044223626223
_cell_angle_gamma    89.7221299271194

_space_group_name_H-M_alt    "P 1"
_space_group_IT_number       1

loop_
  _space_group_symop_operation_xyz
  'x, y, z'

loop_
  _atom_site_type_symbol
  _atom_site_label
  _atom_site_symmetry_multiplicity
  _atom_site_fract_x
  _atom_site_fract_y
  _atom_site_fract_z
  _atom_site_occupancy
  Ti  Ti1       1.0  0.7265943288803101  0.6357253193855286  0.47217297554016113  1.0000
  Ba  Ba1       1.0  0.22723253071308136  0.1360331326723099  0.9724511504173279  1.0000
  O   O1        1.0  0.7268494963645935  0.1364540457725525  0.47192147374153137  1.0000
  O   O2        1.0  0.727093517780304  0.6371308565139772  0.9722820520401001  1.0000
