data_image317
_chemical_formula_structural       Ba2Ti2O5
_chemical_formula_sum              "Ba2 Ti2 O5"
_cell_length_a       4.001274750802391
_cell_length_b       4.002039441053715
_cell_length_c       8.3014497756958
_cell_angle_alpha    89.99625956082491
_cell_angle_beta     89.9835417475027
_cell_angle_gamma    90.00184665568985

_space_group_name_H-M_alt    "P 1"
_space_group_IT_number       1

loop_
  _space_group_symop_operation_xyz
  'x, y, z'

loop_
  _atom_site_type_symbol
  _atom_site_label
  _atom_site_symmetry_multiplicity
  _atom_site_fract_x
  _atom_site_fract_y
  _atom_site_fract_z
  _atom_site_occupancy
  Ba  Ba1       1.0  0.41078564524650574  0.9634435176849365  0.4539788067340851  1.0000
  Ba  Ba2       1.0  0.410673052072525  0.9640231728553772  0.9541842341423035  1.0000
  Ti  Ti1       1.0  0.9102410078048706  0.4638833999633789  0.19446001946926117  1.0000
  Ti  Ti2       1.0  0.9107978343963623  0.46405115723609924  0.713388204574585  1.0000
  O   O1        1.0  0.4109240472316742  0.46380749344825745  0.2132960557937622  1.0000
  O   O2        1.0  0.4102476239204407  0.4634866416454315  0.6951966285705566  1.0000
  O   O3        1.0  0.9106640815734863  0.9638924002647399  0.6954277753829956  1.0000
  O   O4        1.0  0.9106406569480896  0.9635636210441589  0.21315182745456696  1.0000
  O   O5        1.0  0.9107207655906677  0.46385249495506287  0.9539632797241211  1.0000
