data_image297
_chemical_formula_structural       TiBa2O5TiOBaO
_chemical_formula_sum              "Ti2 Ba3 O7"
_cell_length_a       4.070859767651222
_cell_length_b       4.081898341374872
_cell_length_c       11.097229957580566
_cell_angle_alpha    100.5281781680741
_cell_angle_beta     100.45117603377635
_cell_angle_gamma    90.12071268744593

_space_group_name_H-M_alt    "P 1"
_space_group_IT_number       1

loop_
  _space_group_symop_operation_xyz
  'x, y, z'

loop_
  _atom_site_type_symbol
  _atom_site_label
  _atom_site_symmetry_multiplicity
  _atom_site_fract_x
  _atom_site_fract_y
  _atom_site_fract_z
  _atom_site_occupancy
  Ti  Ti1       1.0  0.3871576488018036  0.2669880390167236  0.25365808606147766  1.0000
  Ba  Ba1       1.0  0.5948970913887024  0.5048210024833678  0.6973840594291687  1.0000
  Ba  Ba2       1.0  0.7790765166282654  0.6838650107383728  0.06288818269968033  1.0000
  O   O1        1.0  0.08119186758995056  0.014891165308654307  0.6922813653945923  1.0000
  O   O2        1.0  0.6637299656867981  0.10252279043197632  0.8736770153045654  1.0000
  O   O3        1.0  0.1739700436592102  0.6123473644256592  0.8737202882766724  1.0000
  O   O4        1.0  0.8541574478149414  0.2907184362411499  0.2525654733181  1.0000
  O   O5        1.0  0.2664864957332611  0.1999642699956894  0.06315578520298004  1.0000
  Ti  Ti2       1.0  0.19590984284877777  0.0777801126241684  0.8736042380332947  1.0000
  O   O6        1.0  0.3625660538673401  0.8024566769599915  0.25263363122940063  1.0000
  Ba  Ba3       1.0  0.9586302638053894  0.8681827783584594  0.42910704016685486  1.0000
  O   O7        1.0  0.45100370049476624  0.3846814036369324  0.43521782755851746  1.0000
