data_image135
_chemical_formula_structural       OBaOTiO2BaO4Ti
_chemical_formula_sum              "O8 Ba2 Ti2"
_cell_length_a       3.9862592456563997
_cell_length_b       6.240120967948292
_cell_length_c       7.343928337097168
_cell_angle_alpha    89.738624813387
_cell_angle_beta     105.25029748303619
_cell_angle_gamma    89.97958024110362

_space_group_name_H-M_alt    "P 1"
_space_group_IT_number       1

loop_
  _space_group_symop_operation_xyz
  'x, y, z'

loop_
  _atom_site_type_symbol
  _atom_site_label
  _atom_site_symmetry_multiplicity
  _atom_site_fract_x
  _atom_site_fract_y
  _atom_site_fract_z
  _atom_site_occupancy
  O   O1        1.0  0.32507649064064026  0.8803744316101073  0.38011214137077326  1.0000
  Ba  Ba1       1.0  0.3784532845020294  0.3813229203224182  0.4866235852241516  1.0000
  O   O2        1.0  0.5664819478988647  0.1581626683473587  0.8615928888320922  1.0000
  Ti  Ti1       1.0  0.6507560610771179  0.3780219554901123  0.032863717526197433  1.0000
  O   O3        1.0  0.9262210130691528  0.10289201885461807  0.5821802020072937  1.0000
  O   O4        1.0  0.7453026175498962  0.6308765411376953  0.22106117010116574  1.0000
  Ba  Ba2       1.0  0.11286786943674088  0.8779291510581971  0.9571692943572997  1.0000
  O   O5        1.0  0.7454013228416443  0.12964560091495514  0.2219695150852203  1.0000
  O   O6        1.0  0.5671060085296631  0.6022366881370544  0.8642137646675109  1.0000
  O   O7        1.0  0.9241787791252136  0.6560580730438232  0.579313337802887  1.0000
  O   O8        1.0  0.16628225147724152  0.3786546289920807  0.06317546963691711  1.0000
  Ti  Ti2       1.0  0.8409711718559265  0.8811087012290955  0.4112729728221893  1.0000
