data_image437
_chemical_formula_structural       OBaO4BaTiBaOTiOBa2O2
_chemical_formula_sum              "O9 Ba5 Ti2"
_cell_length_a       3.8652279902767592
_cell_length_b       5.38423279347875
_cell_length_c       14.512324333190918
_cell_angle_alpha    101.16010793613411
_cell_angle_beta     89.99054952287159
_cell_angle_gamma    90.06986167724487

_space_group_name_H-M_alt    "P 1"
_space_group_IT_number       1

loop_
  _space_group_symop_operation_xyz
  'x, y, z'

loop_
  _atom_site_type_symbol
  _atom_site_label
  _atom_site_symmetry_multiplicity
  _atom_site_fract_x
  _atom_site_fract_y
  _atom_site_fract_z
  _atom_site_occupancy
  O   O1        1.0  0.21556609869003293  0.7254147529602051  0.6145740747451782  1.0000
  Ba  Ba1       1.0  0.21493941545486447  0.7152372598648071  0.07201225310564041  1.0000
  O   O2        1.0  0.7146799564361571  0.9791827201843262  0.20574916899204254  1.0000
  O   O3        1.0  0.21432790160179135  0.11931201815605162  0.5078974962234497  1.0000
  O   O4        1.0  0.7155333161354064  0.19054144620895383  0.6508656144142151  1.0000
  O   O5        1.0  0.21495938301086423  0.4025767743587494  0.20794513821601868  1.0000
  Ba  Ba2       1.0  0.7152535319328307  0.16790135204792023  0.9029030203819275  1.0000
  Ti  Ti1       1.0  0.21515843272209165  0.05952601134777069  0.6339849829673767  1.0000
  Ba  Ba3       1.0  0.2145925462245941  0.8631180524826049  0.32975003123283386  1.0000
  O   O6        1.0  0.21596008539199826  0.10456842929124832  0.7842498421669006  1.0000
  Ti  Ti2       1.0  0.7152146697044371  0.32914337515830994  0.20744705200195315  1.0000
  O   O7        1.0  0.7152109742164611  0.37828072905540466  0.07964254915714264  1.0000
  Ba  Ba4       1.0  0.7153151035308837  0.4611381292343139  0.5144590139389038  1.0000
  Ba  Ba5       1.0  0.2154431194067001  0.6045638918876648  0.7820881009101868  1.0000
  O   O8        1.0  0.7153263092041015  0.6848602890968322  0.909889280796051  1.0000
  O   O9        1.0  0.7150273919105529  0.5230541229248047  0.33775487542152405  1.0000
