data_image69
_chemical_formula_structural       BaTiO3
_chemical_formula_sum              "Ba1 Ti1 O3"
_cell_length_a       3.9681028129006317
_cell_length_b       4.10338830609475
_cell_length_c       4.124669075012207
_cell_angle_alpha    89.57928335637799
_cell_angle_beta     90.01405220421067
_cell_angle_gamma    90.02465265884922

_space_group_name_H-M_alt    "P 1"
_space_group_IT_number       1

loop_
  _space_group_symop_operation_xyz
  'x, y, z'

loop_
  _atom_site_type_symbol
  _atom_site_label
  _atom_site_symmetry_multiplicity
  _atom_site_fract_x
  _atom_site_fract_y
  _atom_site_fract_z
  _atom_site_occupancy
  Ba  Ba1       1.0  0.2076152265071869  0.37453132867813105  0.6127755045890808  1.0000
  Ti  Ti1       1.0  0.7086691856384277  0.8554639220237732  0.09405740350484848  1.0000
  O   O1        1.0  0.7077773213386536  0.888779878616333  0.6495545506477356  1.0000
  O   O2        1.0  0.20823046565055847  0.9006563425064086  0.13930076360702515  1.0000
  O   O3        1.0  0.7080222368240356  0.40880590677261347  0.13007457554340363  1.0000
