data_image320
_chemical_formula_structural       OBaTi2O3BaO4
_chemical_formula_sum              "O8 Ba2 Ti2"
_cell_length_a       3.990306110168839
_cell_length_b       6.208323889705411
_cell_length_c       7.305075645446777
_cell_angle_alpha    89.84464301276608
_cell_angle_beta     105.31000073849478
_cell_angle_gamma    89.93405019262929

_space_group_name_H-M_alt    "P 1"
_space_group_IT_number       1

loop_
  _space_group_symop_operation_xyz
  'x, y, z'

loop_
  _atom_site_type_symbol
  _atom_site_label
  _atom_site_symmetry_multiplicity
  _atom_site_fract_x
  _atom_site_fract_y
  _atom_site_fract_z
  _atom_site_occupancy
  O   O1        1.0  0.9814934134483337  0.944863259792328  0.7211925983428954  1.0000
  Ba  Ba1       1.0  0.16966427862644196  0.16811524331569674  0.0966072231531143  1.0000
  Ti  Ti1       1.0  0.7072203159332275  0.6679524779319763  0.1701727211475372  1.0000
  Ti  Ti2       1.0  0.8964699506759644  0.16969220340251923  0.5496249198913574  1.0000
  O   O2        1.0  0.6217995882034302  0.4457121789455414  0.9987270236015319  1.0000
  O   O3        1.0  0.3802613317966461  0.16882626712322235  0.5174301862716675  1.0000
  O   O4        1.0  0.6212994456291199  0.8925625681877136  0.9990165233612059  1.0000
  Ba  Ba2       1.0  0.43424588441848755  0.6699670553207397  0.6250966191291807  1.0000
  O   O5        1.0  0.22341857850551605  0.6690396070480348  0.20314833521842954  1.0000
  O   O6        1.0  0.8014813661575317  0.9192741513252258  0.35972741246223444  1.0000
  O   O7        1.0  0.9816120266914368  0.3918116688728333  0.7214156389236449  1.0000
  O   O8        1.0  0.8020663857460022  0.4193442761898041  0.36047750711441034  1.0000
