data_image207
_chemical_formula_structural       Ba2OTiO2
_chemical_formula_sum              "Ba2 O3 Ti1"
_cell_length_a       4.031356388787392
_cell_length_b       3.9811053892578827
_cell_length_c       7.377180576324463
_cell_angle_alpha    105.72896498276738
_cell_angle_beta     105.8235701639704
_cell_angle_gamma    90.00804127956465

_space_group_name_H-M_alt    "P 1"
_space_group_IT_number       1

loop_
  _space_group_symop_operation_xyz
  'x, y, z'

loop_
  _atom_site_type_symbol
  _atom_site_label
  _atom_site_symmetry_multiplicity
  _atom_site_fract_x
  _atom_site_fract_y
  _atom_site_fract_z
  _atom_site_occupancy
  Ba  Ba1       1.0  0.8019255995750428  0.36237284541130066  0.9255645871162413  1.0000
  Ba  Ba2       1.0  0.09570733457803728  0.6540637016296387  0.5109611749649048  1.0000
  O   O1        1.0  0.9487575292587281  0.008492906577885153  0.21862694621086118  1.0000
  Ti  Ti1       1.0  0.44884064793586737  0.008397208526730537  0.2183185964822769  1.0000
  O   O2        1.0  0.3024733662605286  0.8627245426177979  0.9260357618331908  1.0000
  O   O3        1.0  0.5948092937469484  0.1538664698600769  0.510469377040863  1.0000
