data_image590
_chemical_formula_structural       BaO3TiOBaTi2OBaOTiO3Ba
_chemical_formula_sum              "Ba4 O9 Ti4"
_cell_length_a       5.862477241023514
_cell_length_b       7.097680971099624
_cell_length_c       7.09795618057251
_cell_angle_alpha    112.39016856075523
_cell_angle_beta     89.42094590139004
_cell_angle_gamma    90.63341376380473

_space_group_name_H-M_alt    "P 1"
_space_group_IT_number       1

loop_
  _space_group_symop_operation_xyz
  'x, y, z'

loop_
  _atom_site_type_symbol
  _atom_site_label
  _atom_site_symmetry_multiplicity
  _atom_site_fract_x
  _atom_site_fract_y
  _atom_site_fract_z
  _atom_site_occupancy
  Ba  Ba1       1.0  0.21828627586364746  0.6917107701301574  0.7753039598464966  1.0000
  O   O1        1.0  0.47168099880218506  0.3160456717014313  0.6498845815658569  1.0000
  O   O2        1.0  0.9683259725570679  0.5628363490104675  0.4024322032928467  1.0000
  O   O3        1.0  0.9666420817375183  0.31012049317359924  0.6550388336181641  1.0000
  Ti  Ti1       1.0  0.22258727252483368  0.2090036869049072  0.7571055293083191  1.0000
  O   O4        1.0  0.22545252740383148  0.4195380210876465  0.02963375113904473  1.0000
  Ba  Ba2       1.0  0.7186350226402283  0.43517875671386713  0.02956600487232205  1.0000
  Ti  Ti2       1.0  0.7143449187278748  0.9176469445228576  0.04800934717059123  1.0000
  Ti  Ti3       1.0  0.20203004777431488  0.6935781240463257  0.27172896265983576  1.0000
  O   O5        1.0  0.4662057161331177  0.8089864253997802  0.15678863227367393  1.0000
  Ba  Ba3       1.0  0.718840479850769  0.9358003139495848  0.5306329131126403  1.0000
  O   O6        1.0  0.9710503816604614  0.8161296844482421  0.1499886810779571  1.0000
  Ti  Ti4       1.0  0.7346522212028503  0.4318530559539795  0.5333164930343627  1.0000
  O   O7        1.0  0.2247827649116516  0.9359278678894043  0.5456172823905945  1.0000
  O   O8        1.0  0.7120693325996399  0.7063604593276978  0.775481641292572  1.0000
  O   O9        1.0  0.711755633354187  0.19033162295818326  0.25939658284187317  1.0000
  Ba  Ba4       1.0  0.21818594634532928  0.18978293240070343  0.2736484408378601  1.0000
