data_image116
_chemical_formula_structural       TiBaOTiBaTiOBaO4TiO5
_chemical_formula_sum              "Ti4 Ba3 O11"
_cell_length_a       5.906474768258539
_cell_length_b       6.349646195188233
_cell_length_c       9.963743209838867
_cell_angle_alpha    97.89124809046197
_cell_angle_beta     91.22724406796057
_cell_angle_gamma    104.14402018441453

_space_group_name_H-M_alt    "P 1"
_space_group_IT_number       1

loop_
  _space_group_symop_operation_xyz
  'x, y, z'

loop_
  _atom_site_type_symbol
  _atom_site_label
  _atom_site_symmetry_multiplicity
  _atom_site_fract_x
  _atom_site_fract_y
  _atom_site_fract_z
  _atom_site_occupancy
  Ti  Ti1       1.0  0.3254167437553406  0.15323737263679504  0.5283517837524414  1.0000
  Ba  Ba1       1.0  0.763480544090271  0.16669975221157074  0.25484102964401245  1.0000
  O   O1        1.0  0.33851996064186096  0.4492563605308532  0.5302501916885376  1.0000
  Ti  Ti2       1.0  0.4640249609947205  0.5610025525093079  0.18273812532424927  1.0000
  Ba  Ba2       1.0  0.2544483244419098  0.956055223941803  0.9281729459762573  1.0000
  Ti  Ti3       1.0  0.24091731011867526  0.48623865842819214  0.7118203639984131  1.0000
  O   O2        1.0  0.1523590385913849  0.4800162315368652  0.24151955544948578  1.0000
  Ba  Ba3       1.0  0.746831476688385  0.7627420425415039  0.5778394341468811  1.0000
  O   O3        1.0  0.597008466720581  0.09977167099714279  0.4999428689479828  1.0000
  O   O4        1.0  0.1031401976943016  0.9612129926681519  0.40410470962524414  1.0000
  O   O5        1.0  0.39966216683387756  0.8254787921905518  0.16017156839370728  1.0000
  O   O6        1.0  0.006101108621805906  0.6040953397750854  0.7289929986000061  1.0000
  Ti  Ti4       1.0  0.06207029893994332  0.7528712153434753  0.24168451130390167  1.0000
  O   O7        1.0  0.7380312085151672  0.6101722121238708  0.29935944080352783  1.0000
  O   O8        1.0  0.9544800519943238  0.87064790725708  0.11354869604110718  1.0000
  O   O9        1.0  0.49348333477973944  0.3257794678211212  0.07372742146253586  1.0000
  O   O10       1.0  0.2170363962650299  0.16847014427185059  0.7058674097061157  1.0000
  O   O11       1.0  0.47772094607353216  0.6933892369270324  0.7906057238578796  1.0000
