data_image567
_chemical_formula_structural       BaTiOTiO2BaTiO6
_chemical_formula_sum              "Ba2 Ti3 O9"
_cell_length_a       3.950584529169961
_cell_length_b       5.779813064940592
_cell_length_c       8.6167631149292
_cell_angle_alpha    90.12647029135053
_cell_angle_beta     90.01397707114046
_cell_angle_gamma    89.98290654195843

_space_group_name_H-M_alt    "P 1"
_space_group_IT_number       1

loop_
  _space_group_symop_operation_xyz
  'x, y, z'

loop_
  _atom_site_type_symbol
  _atom_site_label
  _atom_site_symmetry_multiplicity
  _atom_site_fract_x
  _atom_site_fract_y
  _atom_site_fract_z
  _atom_site_occupancy
  Ba  Ba1       1.0  0.12867113947868347  0.4692539870738983  0.7289353013038635  1.0000
  Ti  Ti1       1.0  0.6289918422698975  0.9692969918251038  0.7076308727264404  1.0000
  O   O1        1.0  0.1287594586610794  0.47063863277435297  0.05239419266581535  1.0000
  Ti  Ti2       1.0  0.6286875605583191  0.47108376026153564  0.05409868806600571  1.0000
  O   O2        1.0  0.6285831928253174  0.21922048926353455  0.9033892154693604  1.0000
  O   O3        1.0  0.6289981603622437  0.24928896129131314  0.23123426735401154  1.0000
  Ba  Ba2       1.0  0.1288350373506546  0.9700629711151123  0.10234905779361725  1.0000
  Ti  Ti3       1.0  0.6277440786361694  0.46988427639007563  0.3912014961242676  1.0000
  O   O4        1.0  0.6283972859382629  0.7173747420310974  0.574769139289856  1.0000
  O   O5        1.0  0.1285502016544342  0.969415783882141  0.7398396730422974  1.0000
  O   O6        1.0  0.6283035278320312  0.2208223193883896  0.5743119120597839  1.0000
  O   O7        1.0  0.12851582467556  0.4671389758586883  0.4146195948123932  1.0000
  O   O8        1.0  0.628715991973877  0.7212644815444946  0.9042066335678101  1.0000
  O   O9        1.0  0.6289786100387573  0.6911502480506896  0.2327076494693756  1.0000
