data_image544
_chemical_formula_structural       BaTi2O2BaO4
_chemical_formula_sum              "Ba2 Ti2 O6"
_cell_length_a       4.134309148572342
_cell_length_b       4.126567556382619
_cell_length_c       7.942953586578369
_cell_angle_alpha    90.03263714852234
_cell_angle_beta     90.0358746581007
_cell_angle_gamma    89.55528888289207

_space_group_name_H-M_alt    "P 1"
_space_group_IT_number       1

loop_
  _space_group_symop_operation_xyz
  'x, y, z'

loop_
  _atom_site_type_symbol
  _atom_site_label
  _atom_site_symmetry_multiplicity
  _atom_site_fract_x
  _atom_site_fract_y
  _atom_site_fract_z
  _atom_site_occupancy
  Ba  Ba1       1.0  0.6982800364494324  0.223817840218544  0.12137201428413393  1.0000
  Ti  Ti1       1.0  0.2152012288570404  0.7408051490783691  0.8713747859001161  1.0000
  Ti  Ti2       1.0  0.21493801474571228  0.7401005625724792  0.37183758616447454  1.0000
  O   O1        1.0  0.16915148496627808  0.6943758130073547  0.6219832301139832  1.0000
  O   O2        1.0  0.17998892068862915  0.18619751930236816  0.8715922236442567  1.0000
  Ba  Ba2       1.0  0.698141872882843  0.22358185052871704  0.621780514717102  1.0000
  O   O3        1.0  0.1796385794878006  0.1856561154127121  0.3714511394500733  1.0000
  O   O4        1.0  0.6604387164115906  0.7049559950828552  0.3720910847187043  1.0000
  O   O5        1.0  0.1700521558523178  0.6959483623504639  0.1212873011827469  1.0000
  O   O6        1.0  0.6609184145927429  0.7058893442153931  0.871554732322693  1.0000
