data_image505
_chemical_formula_structural       BaO3TiO
_chemical_formula_sum              "Ba1 O4 Ti1"
_cell_length_a       3.9241615380601984
_cell_length_b       4.215483781071354
_cell_length_c       5.179452419281006
_cell_angle_alpha    89.65610249112078
_cell_angle_beta     84.1395023994254
_cell_angle_gamma    89.78110862072465

_space_group_name_H-M_alt    "P 1"
_space_group_IT_number       1

loop_
  _space_group_symop_operation_xyz
  'x, y, z'

loop_
  _atom_site_type_symbol
  _atom_site_label
  _atom_site_symmetry_multiplicity
  _atom_site_fract_x
  _atom_site_fract_y
  _atom_site_fract_z
  _atom_site_occupancy
  Ba  Ba1       1.0  0.6462268829345703  0.18290232121944427  0.744557499885559  1.0000
  O   O1        1.0  0.5981895327568054  0.7062467336654663  0.12266257405281067  1.0000
  O   O2        1.0  0.007258978206664324  0.6892847418785095  0.5218052864074707  1.0000
  O   O3        1.0  0.09192901104688644  0.21476422250270844  0.12909291684627536  1.0000
  Ti  Ti1       1.0  0.09216844290494919  0.649957537651062  0.15531273186206818  1.0000
  O   O4        1.0  0.20084168016910553  0.6930392980575562  0.7535682916641235  1.0000
