data_image282
_chemical_formula_structural       O2Ba2Ti2OBaO4TiBaO2
_chemical_formula_sum              "O9 Ba4 Ti3"
_cell_length_a       4.037058850849069
_cell_length_b       4.025253764573581
_cell_length_c       15.181421279907227
_cell_angle_alpha    97.68341950873253
_cell_angle_beta     97.67662317126391
_cell_angle_gamma    90.06525122828192

_space_group_name_H-M_alt    "P 1"
_space_group_IT_number       1

loop_
  _space_group_symop_operation_xyz
  'x, y, z'

loop_
  _atom_site_type_symbol
  _atom_site_label
  _atom_site_symmetry_multiplicity
  _atom_site_fract_x
  _atom_site_fract_y
  _atom_site_fract_z
  _atom_site_occupancy
  O   O1        1.0  0.466877818107605  0.5587502717971802  0.8874867558479309  1.0000
  O   O2        1.0  0.6255066394805908  0.21830543875694275  0.20413264632225037  1.0000
  Ba  Ba1       1.0  0.5606709122657776  0.6533083915710449  0.07496016472578049  1.0000
  Ba  Ba2       1.0  0.8332920670509338  0.9253461360931396  0.6201250553131104  1.0000
  Ti  Ti1       1.0  0.12254636734724045  0.21526801586151123  0.19881515204906464  1.0000
  Ti  Ti2       1.0  0.4006384611129761  0.4933907389640808  0.755928635597229  1.0000
  O   O3        1.0  0.12526220083236694  0.7181029319763184  0.20406986773014069  1.0000
  Ba  Ba3       1.0  0.690683901309967  0.7829980850219727  0.33404603600502014  1.0000
  O   O4        1.0  0.19772522151470184  0.28974294662475586  0.34775057435035706  1.0000
  O   O5        1.0  0.2624819874763489  0.8540124893188477  0.4771793484687805  1.0000
  O   O6        1.0  0.39889246225357056  0.9907379746437073  0.7507510781288147  1.0000
  O   O7        1.0  0.057649362832307816  0.15017546713352203  0.06765653192996979  1.0000
  Ti  Ti3       1.0  0.26251691579818726  0.354534387588501  0.47735828161239624  1.0000
  Ba  Ba4       1.0  0.963493824005127  0.05546863004565239  0.8795700073242188  1.0000
  O   O8        1.0  0.3268890678882599  0.41904711723327637  0.6068710088729858  1.0000
  O   O9        1.0  0.8986015915870667  0.49052196741104126  0.7506838440895081  1.0000
