data_image422
_chemical_formula_structural       BaTi2BaO6
_chemical_formula_sum              "Ba2 Ti2 O6"
_cell_length_a       5.431038703917387
_cell_length_b       5.434200416811219
_cell_length_c       6.465610027313232
_cell_angle_alpha    65.22653033023005
_cell_angle_beta     65.20643423379248
_cell_angle_gamma    60.04877041439853

_space_group_name_H-M_alt    "P 1"
_space_group_IT_number       1

loop_
  _space_group_symop_operation_xyz
  'x, y, z'

loop_
  _atom_site_type_symbol
  _atom_site_label
  _atom_site_symmetry_multiplicity
  _atom_site_fract_x
  _atom_site_fract_y
  _atom_site_fract_z
  _atom_site_occupancy
  Ba  Ba1       1.0  0.9975644946098328  0.08309515565633775  0.9194515943527222  1.0000
  Ti  Ti1       1.0  0.45966318249702454  0.5458043217658997  0.5316497683525085  1.0000
  Ti  Ti2       1.0  0.7773614525794983  0.8634577393531799  0.5785936713218689  1.0000
  Ba  Ba2       1.0  0.24010822176933289  0.3255101144313812  0.19111143052577975  1.0000
  O   O1        1.0  0.6938980221748352  0.7801485061645509  0.33488866686820984  1.0000
  O   O2        1.0  0.5441563725471497  0.1359372437000275  0.774737536907196  1.0000
  O   O3        1.0  0.5437852144241333  0.6288086771965027  0.774970531463623  1.0000
  O   O4        1.0  0.1873621642589569  0.7797253727912903  0.33553630113601685  1.0000
  O   O5        1.0  0.6937239766120911  0.27373307943344116  0.3355109393596649  1.0000
  O   O6        1.0  0.05024593323469162  0.6285264492034912  0.7747445702552795  1.0000
