data_image187
_chemical_formula_structural       OBaO2Ti2O
_chemical_formula_sum              "O4 Ba1 Ti2"
_cell_length_a       3.1539825287573344
_cell_length_b       5.064540516856253
_cell_length_c       7.091856479644775
_cell_angle_alpha    113.83409758659029
_cell_angle_beta     102.53808503050152
_cell_angle_gamma    90.07487492038507

_space_group_name_H-M_alt    "P 1"
_space_group_IT_number       1

loop_
  _space_group_symop_operation_xyz
  'x, y, z'

loop_
  _atom_site_type_symbol
  _atom_site_label
  _atom_site_symmetry_multiplicity
  _atom_site_fract_x
  _atom_site_fract_y
  _atom_site_fract_z
  _atom_site_occupancy
  O   O1        1.0  0.19619356095790863  0.27220261096954346  0.5747039318084717  1.0000
  Ba  Ba1       1.0  0.8649893403053284  0.5826737284660339  0.9123142957687379  1.0000
  O   O2        1.0  0.7092623114585876  0.773586630821228  0.5983667969703675  1.0000
  O   O3        1.0  0.5356898903846741  0.8983045220375062  0.2511807978153229  1.0000
  Ti  Ti1       1.0  0.12661173939704895  0.8334841728210449  0.4344137609004975  1.0000
  Ti  Ti2       1.0  0.6056599617004395  0.33813175559043884  0.3901093006134034  1.0000
  O   O4        1.0  0.02412201091647148  0.3979608416557312  0.2282739877700806  1.0000
