data_image583
_chemical_formula_structural       BaOTiO
_chemical_formula_sum              "Ba1 O2 Ti1"
_cell_length_a       3.271847308525147
_cell_length_b       3.2722488645478576
_cell_length_c       7.073849678039551
_cell_angle_alpha    76.38396607140193
_cell_angle_beta     76.44051328386506
_cell_angle_gamma    59.788655714330936

_space_group_name_H-M_alt    "P 1"
_space_group_IT_number       1

loop_
  _space_group_symop_operation_xyz
  'x, y, z'

loop_
  _atom_site_type_symbol
  _atom_site_label
  _atom_site_symmetry_multiplicity
  _atom_site_fract_x
  _atom_site_fract_y
  _atom_site_fract_z
  _atom_site_occupancy
  Ba  Ba1       1.0  0.2289063632488251  0.7252520322799683  0.10650463402271271  1.0000
  O   O1        1.0  0.10661154985427858  0.6032687425613403  0.47443354129791265  1.0000
  Ti  Ti1       1.0  0.7276411652565002  0.22504720091819766  0.6107035279273987  1.0000
  O   O2        1.0  0.3493342399597168  0.8459875583648682  0.7437534332275391  1.0000
