data_image284
_chemical_formula_structural       OBaTiBaO2
_chemical_formula_sum              "O3 Ba2 Ti1"
_cell_length_a       4.000202000010986
_cell_length_b       4.005372608373959
_cell_length_c       8.870959281921387
_cell_angle_alpha    103.00586362896105
_cell_angle_beta     102.96133242699482
_cell_angle_gamma    90.0284570420402

_space_group_name_H-M_alt    "P 1"
_space_group_IT_number       1

loop_
  _space_group_symop_operation_xyz
  'x, y, z'

loop_
  _atom_site_type_symbol
  _atom_site_label
  _atom_site_symmetry_multiplicity
  _atom_site_fract_x
  _atom_site_fract_y
  _atom_site_fract_z
  _atom_site_occupancy
  O   O1        1.0  0.014809795655310154  0.9272530674934387  0.6263119578361511  1.0000
  Ba  Ba1       1.0  0.4033574163913727  0.8157159090042114  0.40640488266944885  1.0000
  Ti  Ti1       1.0  0.02930227853357792  0.44287073612213135  0.6554616689682007  1.0000
  Ba  Ba2       1.0  0.6465374231338501  0.05989859625697136  0.8910223245620728  1.0000
  O   O2        1.0  0.5131603479385376  0.42701891064643865  0.6239916086196899  1.0000
  O   O3        1.0  0.13663005828857422  0.5497051477432251  0.8701781630516052  1.0000
