data_image584
_chemical_formula_structural       BaOBa2TiO6Ti
_chemical_formula_sum              "Ba3 O7 Ti2"
_cell_length_a       4.078421785073391
_cell_length_b       4.081641410442664
_cell_length_c       11.067290306091309
_cell_angle_alpha    100.57709004001899
_cell_angle_beta     100.50314057932853
_cell_angle_gamma    90.28639214503661

_space_group_name_H-M_alt    "P 1"
_space_group_IT_number       1

loop_
  _space_group_symop_operation_xyz
  'x, y, z'

loop_
  _atom_site_type_symbol
  _atom_site_label
  _atom_site_symmetry_multiplicity
  _atom_site_fract_x
  _atom_site_fract_y
  _atom_site_fract_z
  _atom_site_occupancy
  Ba  Ba1       1.0  0.35707542300224304  0.09738444536924362  0.45116758346557617  1.0000
  O   O1        1.0  0.758432924747467  0.031110752373933792  0.2739294767379761  1.0000
  Ba  Ba2       1.0  0.17586129903793335  0.9129849672317504  0.08496989309787749  1.0000
  Ba  Ba3       1.0  0.99148029088974  0.7326317429542542  0.7198189496994019  1.0000
  Ti  Ti1       1.0  0.5938348174095154  0.304971307516098  0.8962646722793579  1.0000
  O   O2        1.0  0.05921686440706253  0.33045658469200134  0.8959528207778931  1.0000
  O   O3        1.0  0.8470190763473511  0.6121950149536133  0.456177294254303  1.0000
  O   O4        1.0  0.4770042300224304  0.24195607006549835  0.7137259244918823  1.0000
  O   O5        1.0  0.6610630750656128  0.42755869030952454  0.08434107154607773  1.0000
  O   O6        1.0  0.24765951931476593  0.5179893374443053  0.27362582087516785  1.0000
  O   O7        1.0  0.5711908936500549  0.8414878845214843  0.896007239818573  1.0000
  Ti  Ti2       1.0  0.7839887738227843  0.4938607513904571  0.2754341959953308  1.0000
