data_image41
_chemical_formula_structural       BaTiO2
_chemical_formula_sum              "Ba1 Ti1 O2"
_cell_length_a       3.3121684149093573
_cell_length_b       3.314473560671002
_cell_length_c       6.303031921386719
_cell_angle_alpha    74.79147966732721
_cell_angle_beta     74.79649359705158
_cell_angle_gamma    60.04743103074947

_space_group_name_H-M_alt    "P 1"
_space_group_IT_number       1

loop_
  _space_group_symop_operation_xyz
  'x, y, z'

loop_
  _atom_site_type_symbol
  _atom_site_label
  _atom_site_symmetry_multiplicity
  _atom_site_fract_x
  _atom_site_fract_y
  _atom_site_fract_z
  _atom_site_occupancy
  Ba  Ba1       1.0  0.6428403258323669  0.10845781117677689  0.08273864537477493  1.0000
  Ti  Ti1       1.0  0.14318998157978058  0.609271228313446  0.5825052261352539  1.0000
  O   O1        1.0  0.8655785322189332  0.3317238092422485  0.41413000226020813  1.0000
  O   O2        1.0  0.4197517335414886  0.8856665492057799  0.7510130405426025  1.0000
