data_image482
_chemical_formula_structural       BaTiO5BaOTiO2
_chemical_formula_sum              "Ba2 Ti2 O8"
_cell_length_a       4.141150732719546
_cell_length_b       5.870531507429093
_cell_length_c       6.667757511138916
_cell_angle_alpha    89.77504339921434
_cell_angle_beta     96.70730250555475
_cell_angle_gamma    89.98482582577263

_space_group_name_H-M_alt    "P 1"
_space_group_IT_number       1

loop_
  _space_group_symop_operation_xyz
  'x, y, z'

loop_
  _atom_site_type_symbol
  _atom_site_label
  _atom_site_symmetry_multiplicity
  _atom_site_fract_x
  _atom_site_fract_y
  _atom_site_fract_z
  _atom_site_occupancy
  Ba  Ba1       1.0  0.5652462244033813  0.19638691842556  0.641140878200531  1.0000
  Ti  Ti1       1.0  0.120426706969738  0.6943388581275939  0.7114836573600769  1.0000
  O   O1        1.0  0.627098798751831  0.1937185376882553  0.09716937690973282  1.0000
  O   O2        1.0  0.01738702692091465  0.4603983759880066  0.48457255959510803  1.0000
  O   O3        1.0  0.5488789081573486  0.6955333948135375  0.7046465277671814  1.0000
  O   O4        1.0  0.21154175698757172  0.960127353668213  0.31520524621009827  1.0000
  O   O5        1.0  0.09632653743028641  0.9442013502120972  0.8991785645484924  1.0000
  Ba  Ba2       1.0  0.6875869631767273  0.6962186694145203  0.15401753783226013  1.0000
  O   O6        1.0  0.20964084565639496  0.43205252289772034  0.31147170066833496  1.0000
  Ti  Ti2       1.0  0.18900932371616364  0.195053368806839  0.08390460163354874  1.0000
  O   O7        1.0  0.016603142023086548  0.933077871799469  0.48509055376052856  1.0000
  O   O8        1.0  0.0959554985165596  0.44252824783325195  0.8960458636283875  1.0000
