data_image484
_chemical_formula_structural       BaOTiO2
_chemical_formula_sum              "Ba1 O3 Ti1"
_cell_length_a       4.104309373406819
_cell_length_b       4.097878704102815
_cell_length_c       4.092494964599609
_cell_angle_alpha    90.01993299791486
_cell_angle_beta     89.51167819840755
_cell_angle_gamma    90.05518360011872

_space_group_name_H-M_alt    "P 1"
_space_group_IT_number       1

loop_
  _space_group_symop_operation_xyz
  'x, y, z'

loop_
  _atom_site_type_symbol
  _atom_site_label
  _atom_site_symmetry_multiplicity
  _atom_site_fract_x
  _atom_site_fract_y
  _atom_site_fract_z
  _atom_site_occupancy
  Ba  Ba1       1.0  0.7372761964797974  0.8378389477729798  0.041044242680072784  1.0000
  O   O1        1.0  0.22031563520431519  0.8671415448188782  0.5245799422264099  1.0000
  Ti  Ti1       1.0  0.2530575394630432  0.32117676734924316  0.5582132339477539  1.0000
  O   O2        1.0  0.7087127566337585  0.3542618155479431  0.5243430137634277  1.0000
  O   O3        1.0  0.22122503817081451  0.3537740111351013  0.01277599111199379  1.0000
