data_image561
_chemical_formula_structural       TiBaOBaO3
_chemical_formula_sum              "Ti1 Ba2 O4"
_cell_length_a       4.046547041495001
_cell_length_b       4.046627006660776
_cell_length_c       7.337585926055908
_cell_angle_alpha    105.92995650845145
_cell_angle_beta     105.84604741616019
_cell_angle_gamma    90.01769951576853

_space_group_name_H-M_alt    "P 1"
_space_group_IT_number       1

loop_
  _space_group_symop_operation_xyz
  'x, y, z'

loop_
  _atom_site_type_symbol
  _atom_site_label
  _atom_site_symmetry_multiplicity
  _atom_site_fract_x
  _atom_site_fract_y
  _atom_site_fract_z
  _atom_site_occupancy
  Ti  Ti1       1.0  0.4932643473148346  0.7779340147972107  0.6729434728622437  1.0000
  Ba  Ba1       1.0  0.13605932891368866  0.4210153818130493  0.9591661095619202  1.0000
  O   O1        1.0  0.49364033341407776  0.27812516689300537  0.6733293533325195  1.0000
  Ba  Ba2       1.0  0.8506122827529907  0.13513776659965515  0.38695961236953735  1.0000
  O   O2        1.0  0.9934475421905518  0.7780657410621643  0.6732274293899536  1.0000
  O   O3        1.0  0.6408485770225525  0.9255583882331848  0.9682798385620117  1.0000
  O   O4        1.0  0.34606096148490906  0.6307321786880493  0.37810996174812317  1.0000
