data_image194
_chemical_formula_structural       TiBaOBaO3TiOBaO2
_chemical_formula_sum              "Ti2 Ba3 O7"
_cell_length_a       3.962724974699603
_cell_length_b       4.04109103868506
_cell_length_c       11.466078758239746
_cell_angle_alpha    100.17180037547793
_cell_angle_beta     90.03562194107808
_cell_angle_gamma    90.02848439342358

_space_group_name_H-M_alt    "P 1"
_space_group_IT_number       1

loop_
  _space_group_symop_operation_xyz
  'x, y, z'

loop_
  _atom_site_type_symbol
  _atom_site_label
  _atom_site_symmetry_multiplicity
  _atom_site_fract_x
  _atom_site_fract_y
  _atom_site_fract_z
  _atom_site_occupancy
  Ti  Ti1       1.0  0.482173889875412  0.5021914839744568  0.5431433916091919  1.0000
  Ba  Ba1       1.0  0.9825248718261719  0.9102874398231506  0.3590201735496521  1.0000
  O   O1        1.0  0.48236891627311707  0.23269563913345337  0.003022857941687107  1.0000
  Ba  Ba2       1.0  0.982607364654541  0.08542660623788834  0.7089604139328003  1.0000
  O   O2        1.0  0.9819259643554688  0.3186355531215668  0.17532563209533691  1.0000
  O   O3        1.0  0.48245692253112793  0.8187907934188843  0.17532527446746826  1.0000
  O   O4        1.0  0.4827512800693512  0.002754783257842064  0.5431526899337769  1.0000
  Ti  Ti2       1.0  0.4825434684753418  0.31857115030288696  0.17528246343135834  1.0000
  O   O5        1.0  0.9829118847846985  0.5025458335876465  0.5431188344955444  1.0000
  Ba  Ba3       1.0  0.9824512004852295  0.7352178692817688  0.009114589542150497  1.0000
  O   O6        1.0  0.482986181974411  0.5883892774581909  0.7152923345565796  1.0000
  O   O7        1.0  0.4827161729335785  0.41074320673942566  0.35946357250213623  1.0000
