data_image206
_chemical_formula_structural       BaTiO2TiO3BaO2Ba
_chemical_formula_sum              "Ba3 Ti2 O7"
_cell_length_a       4.079861021657875
_cell_length_b       4.076871399988227
_cell_length_c       11.094314575195312
_cell_angle_alpha    100.42651168119137
_cell_angle_beta     100.57021816817765
_cell_angle_gamma    89.99216852420399

_space_group_name_H-M_alt    "P 1"
_space_group_IT_number       1

loop_
  _space_group_symop_operation_xyz
  'x, y, z'

loop_
  _atom_site_type_symbol
  _atom_site_label
  _atom_site_symmetry_multiplicity
  _atom_site_fract_x
  _atom_site_fract_y
  _atom_site_fract_z
  _atom_site_occupancy
  Ba  Ba1       1.0  0.9777205586433411  0.3745605945587158  0.17755377292633057  1.0000
  Ti  Ti1       1.0  0.3705321252346039  0.7608482241630554  0.987852156162262  1.0000
  O   O1        1.0  0.3061910569667816  0.6954976320266725  0.8075493574142456  1.0000
  O   O2        1.0  0.9058470129966736  0.7835816740989685  0.9886919856071472  1.0000
  Ti  Ti2       1.0  0.5588475465774536  0.9897493720054626  0.36756420135498047  1.0000
  O   O3        1.0  0.09571125358343124  0.9645904898643494  0.36693644523620605  1.0000
  O   O4        1.0  0.39446282386779785  0.29362815618515015  0.9884105324745178  1.0000
  O   O5        1.0  0.5847291350364685  0.45568370819091797  0.3671855628490448  1.0000
  Ba  Ba2       1.0  0.16331017017364502  0.5627930760383606  0.543708086013794  1.0000
  O   O6        1.0  0.49302834272384644  0.8749135732650757  0.1780862808227539  1.0000
  O   O7        1.0  0.6776604056358337  0.0540953241288662  0.5496036410331726  1.0000
  Ba  Ba3       1.0  0.797012984752655  0.186515212059021  0.8119586110115051  1.0000
