data_image112
_chemical_formula_structural       OBa2Ti2O5
_chemical_formula_sum              "O6 Ba2 Ti2"
_cell_length_a       4.34745012130503
_cell_length_b       5.630008762820109
_cell_length_c       5.630336284637451
_cell_angle_alpha    90.02514443198213
_cell_angle_beta     90.02271971527524
_cell_angle_gamma    89.95010797301488

_space_group_name_H-M_alt    "P 1"
_space_group_IT_number       1

loop_
  _space_group_symop_operation_xyz
  'x, y, z'

loop_
  _atom_site_type_symbol
  _atom_site_label
  _atom_site_symmetry_multiplicity
  _atom_site_fract_x
  _atom_site_fract_y
  _atom_site_fract_z
  _atom_site_occupancy
  O   O1        1.0  0.48554137349128723  0.5827102065086365  0.2134718894958496  1.0000
  Ba  Ba1       1.0  0.9401426315307617  0.3328971862792969  0.9637588262557983  1.0000
  Ba  Ba2       1.0  0.9405421614646912  0.8325015306472778  0.4634413421154022  1.0000
  Ti  Ti1       1.0  0.42155173420906067  0.332999587059021  0.4634787142276764  1.0000
  Ti  Ti2       1.0  0.42237868905067444  0.8328542709350587  0.9632599353790283  1.0000
  O   O2        1.0  0.4860604405403137  0.08310027420520782  0.21394342184066772  1.0000
  O   O3        1.0  0.4859571158885956  0.08318516612052917  0.7133634090423584  1.0000
  O   O4        1.0  0.011903485283255577  0.832998037338257  0.9635781049728394  1.0000
  O   O5        1.0  0.48534682393074036  0.5829684138298035  0.7136242985725403  1.0000
  O   O6        1.0  0.012381847016513348  0.3326893150806427  0.46351099014282227  1.0000
