data_image392
_chemical_formula_structural       Ba2TiBa2OTiO7
_chemical_formula_sum              "Ba4 Ti2 O8"
_cell_length_a       6.213470139887316
_cell_length_b       6.213579575158366
_cell_length_c       8.1551513671875
_cell_angle_alpha    89.96960816161759
_cell_angle_beta     90.03426956105122
_cell_angle_gamma    119.98195715509664

_space_group_name_H-M_alt    "P 1"
_space_group_IT_number       1

loop_
  _space_group_symop_operation_xyz
  'x, y, z'

loop_
  _atom_site_type_symbol
  _atom_site_label
  _atom_site_symmetry_multiplicity
  _atom_site_fract_x
  _atom_site_fract_y
  _atom_site_fract_z
  _atom_site_occupancy
  Ba  Ba1       1.0  0.6149206757545471  0.38253262639045715  0.029089942574501038  1.0000
  Ba  Ba2       1.0  0.28170841932296764  0.7156209349632264  0.7160694003105164  1.0000
  Ti  Ti1       1.0  0.9484233260154724  0.049164500087499625  0.8300183415412903  1.0000
  Ba  Ba3       1.0  0.6151523590087891  0.3827607333660126  0.5285993814468384  1.0000
  Ba  Ba4       1.0  0.9484427571296692  0.04884805902838708  0.34211334586143494  1.0000
  O   O1        1.0  0.7891437411308289  0.207683727145195  0.7476310729980469  1.0000
  Ti  Ti2       1.0  0.28179126977920543  0.7158436179161073  0.22775611281394958  1.0000
  O   O2        1.0  0.4404594600200653  0.033319465816020966  0.3100228011608124  1.0000
  O   O3        1.0  0.2822399139404297  0.7164371609687805  0.006977152079343796  1.0000
  O   O4        1.0  0.7887673377990723  0.7312849164009095  0.74777752161026  1.0000
  O   O5        1.0  0.963798463344574  0.5567740201950074  0.309570848941803  1.0000
  O   O6        1.0  0.9483990669250488  0.04966504499316216  0.050757624208927155  1.0000
  O   O7        1.0  0.2660980522632599  0.20783703029155734  0.7478259801864624  1.0000
  O   O8        1.0  0.44081437587738037  0.5566422343254089  0.30964574217796326  1.0000
