data_image524
_chemical_formula_structural       O2BaTi
_chemical_formula_sum              "O2 Ba1 Ti1"
_cell_length_a       3.25916119015322
_cell_length_b       3.2604966268744278
_cell_length_c       7.079250812530518
_cell_angle_alpha    76.68717860283277
_cell_angle_beta     76.68626320538839
_cell_angle_gamma    59.9252432175538

_space_group_name_H-M_alt    "P 1"
_space_group_IT_number       1

loop_
  _space_group_symop_operation_xyz
  'x, y, z'

loop_
  _atom_site_type_symbol
  _atom_site_label
  _atom_site_symmetry_multiplicity
  _atom_site_fract_x
  _atom_site_fract_y
  _atom_site_fract_z
  _atom_site_occupancy
  O   O1        1.0  0.07713574916124344  0.25058063864707947  0.34325090050697327  1.0000
  O   O2        1.0  0.8340628147125244  0.0075414180755615234  0.07453954219818115  1.0000
  Ba  Ba1       1.0  0.9559570550918579  0.1290343850851059  0.7074716687202454  1.0000
  Ti  Ti1       1.0  0.4569104611873627  0.6297928690910339  0.20908820629119873  1.0000
