data_image380
_chemical_formula_structural       TiBa2TiOBaO2BaO5
_chemical_formula_sum              "Ti2 Ba4 O8"
_cell_length_a       4.070366976657148
_cell_length_b       4.076172698794557
_cell_length_c       14.554215431213379
_cell_angle_alpha    90.06025842815448
_cell_angle_beta     90.04996533738962
_cell_angle_gamma    90.10462733097125

_space_group_name_H-M_alt    "P 1"
_space_group_IT_number       1

loop_
  _space_group_symop_operation_xyz
  'x, y, z'

loop_
  _atom_site_type_symbol
  _atom_site_label
  _atom_site_symmetry_multiplicity
  _atom_site_fract_x
  _atom_site_fract_y
  _atom_site_fract_z
  _atom_site_occupancy
  Ti  Ti1       1.0  0.5250541567802429  0.656582772731781  0.9360345005989075  1.0000
  Ba  Ba1       1.0  0.525010347366333  0.6569074988365173  0.5549423694610596  1.0000
  Ba  Ba2       1.0  0.025643358007073402  0.15744519233703613  0.3313554525375366  1.0000
  Ti  Ti2       1.0  0.5255683064460754  0.6577104926109314  0.21023862063884735  1.0000
  O   O1        1.0  0.5253738760948181  0.6573220491409302  0.06237470358610153  1.0000
  Ba  Ba3       1.0  0.025607068091630936  0.15752363204956055  0.0661095380783081  1.0000
  O   O2        1.0  0.02574746496975422  0.65763920545578  0.20535607635974884  1.0000
  O   O3        1.0  0.5255230665206909  0.1571405678987503  0.6529324650764465  1.0000
  Ba  Ba4       1.0  0.024702362716197968  0.1566523313522339  0.767951250076294  1.0000
  O   O4        1.0  0.526009202003479  0.6572115421295166  0.34777072072029114  1.0000
  O   O5        1.0  0.024570681154727936  0.6568781733512878  0.9186825752258301  1.0000
  O   O6        1.0  0.5252813696861267  0.15672482550144196  0.9197192192077637  1.0000
  O   O7        1.0  0.5257445573806763  0.15731337666511536  0.20541684329509735  1.0000
  O   O8        1.0  0.025205940008163452  0.6568371653556824  0.65179842710495  1.0000
