data_image589
_chemical_formula_structural       Ba2TiOTiO5
_chemical_formula_sum              "Ba2 Ti2 O6"
_cell_length_a       4.19910549897205
_cell_length_b       4.009570402548481
_cell_length_c       8.889145851135254
_cell_angle_alpha    90.19874735394367
_cell_angle_beta     101.8705924675084
_cell_angle_gamma    90.07487503210106

_space_group_name_H-M_alt    "P 1"
_space_group_IT_number       1

loop_
  _space_group_symop_operation_xyz
  'x, y, z'

loop_
  _atom_site_type_symbol
  _atom_site_label
  _atom_site_symmetry_multiplicity
  _atom_site_fract_x
  _atom_site_fract_y
  _atom_site_fract_z
  _atom_site_occupancy
  Ba  Ba1       1.0  0.35521411895751953  0.13108764588832855  0.1666717678308487  1.0000
  Ba  Ba2       1.0  0.9789659976959229  0.6302853226661682  0.49605292081832886  1.0000
  Ti  Ti1       1.0  0.7922073006629944  0.6306976079940796  0.9586626887321472  1.0000
  O   O1        1.0  0.8354134559631348  0.630455493927002  0.17894965410232544  1.0000
  Ti  Ti2       1.0  0.542448103427887  0.13119076192378998  0.7041075229644775  1.0000
  O   O2        1.0  0.2233465164899826  0.6302030682563782  0.9679193496704102  1.0000
  O   O3        1.0  0.11084646731615067  0.1308329552412033  0.6944974064826965  1.0000
  O   O4        1.0  0.6123197674751282  0.6309027671813965  0.7261931896209717  1.0000
  O   O5        1.0  0.7229083180427551  0.13086672127246857  0.9372177124023438  1.0000
  O   O6        1.0  0.49894124269485474  0.13096968829631805  0.4833565056324005  1.0000
