data_image163
_chemical_formula_structural       TiBa2OTiO5
_chemical_formula_sum              "Ti2 Ba2 O6"
_cell_length_a       4.01765990284763
_cell_length_b       6.240131060286557
_cell_length_c       7.982207775115967
_cell_angle_alpha    112.70270891850244
_cell_angle_beta     90.05922024421375
_cell_angle_gamma    90.01067808782201

_space_group_name_H-M_alt    "P 1"
_space_group_IT_number       1

loop_
  _space_group_symop_operation_xyz
  'x, y, z'

loop_
  _atom_site_type_symbol
  _atom_site_label
  _atom_site_symmetry_multiplicity
  _atom_site_fract_x
  _atom_site_fract_y
  _atom_site_fract_z
  _atom_site_occupancy
  Ti  Ti1       1.0  0.8215761184692383  0.15977562963962555  0.5386166572570801  1.0000
  Ba  Ba1       1.0  0.3215959370136261  0.566388726234436  0.3467734158039093  1.0000
  Ba  Ba2       1.0  0.8226100206375122  0.9256592392921448  0.06148876622319227  1.0000
  O   O1        1.0  0.3221184015274048  0.18632185459136966  0.5985457897186279  1.0000
  Ti  Ti2       1.0  0.32264402508735657  0.3299229145050049  0.8688476085662842  1.0000
  O   O2        1.0  0.8225337862968445  0.302625983953476  0.8084128499031067  1.0000
  O   O3        1.0  0.3221553564071655  0.17849197983741763  0.016850236803293235  1.0000
  O   O4        1.0  0.8214970827102661  0.313470870256424  0.3915505707263947  1.0000
  O   O5        1.0  0.82200026512146  0.8611230850219728  0.38906326889991766  1.0000
  O   O6        1.0  0.3227211534976959  0.6289119720458984  0.016889015212655095  1.0000
