data_image474
_chemical_formula_structural       BaOBaOTiO3Ba
_chemical_formula_sum              "Ba3 O5 Ti1"
_cell_length_a       3.9774370013002716
_cell_length_b       6.1933869563628186
_cell_length_c       7.32663106918335
_cell_angle_alpha    114.9169200560919
_cell_angle_beta     105.68243738173375
_cell_angle_gamma    89.99409495666475

_space_group_name_H-M_alt    "P 1"
_space_group_IT_number       1

loop_
  _space_group_symop_operation_xyz
  'x, y, z'

loop_
  _atom_site_type_symbol
  _atom_site_label
  _atom_site_symmetry_multiplicity
  _atom_site_fract_x
  _atom_site_fract_y
  _atom_site_fract_z
  _atom_site_occupancy
  Ba  Ba1       1.0  0.32006117701530457  0.06509150564670563  0.8438175916671753  1.0000
  O   O1        1.0  0.4928554594516754  0.9670173525810242  0.1896245777606964  1.0000
  Ba  Ba2       1.0  0.10825282335281372  0.35329899191856384  0.42063209414482117  1.0000
  O   O2        1.0  0.4920479953289032  0.5083914399147034  0.1896294206380844  1.0000
  Ti  Ti1       1.0  0.6090076565742493  0.8538011908531188  0.4211238026618957  1.0000
  O   O3        1.0  0.7244217991828918  0.1984751671552658  0.652154266834259  1.0000
  O   O4        1.0  0.10858065634965897  0.8534612655639648  0.4211532771587372  1.0000
  O   O5        1.0  0.7241460084915161  0.7400895357131958  0.6522036194801331  1.0000
  Ba  Ba3       1.0  0.8969342112541199  0.6418256163597107  0.9977589249610901  1.0000
