data_image522
_chemical_formula_structural       Ba2OBa2OBaO2BaTiBa
_chemical_formula_sum              "Ba7 O4 Ti1"
_cell_length_a       8.062561078493006
_cell_length_b       8.060084664437873
_cell_length_c       8.466649055480957
_cell_angle_alpha    61.55081696234141
_cell_angle_beta     61.48005506912758
_cell_angle_gamma    59.84082606469905

_space_group_name_H-M_alt    "P 1"
_space_group_IT_number       1

loop_
  _space_group_symop_operation_xyz
  'x, y, z'

loop_
  _atom_site_type_symbol
  _atom_site_label
  _atom_site_symmetry_multiplicity
  _atom_site_fract_x
  _atom_site_fract_y
  _atom_site_fract_z
  _atom_site_occupancy
  Ba  Ba1       1.0  0.5166515111923218  0.8455041646957397  0.6881666779518127  1.0000
  Ba  Ba2       1.0  0.03833109885454179  0.3734591007232666  0.11690684407949448  1.0000
  O   O1        1.0  0.27711760997772217  0.11139550060033798  0.9004941582679749  1.0000
  Ba  Ba3       1.0  0.03590998053550717  0.8683792352676393  0.6264892816543579  1.0000
  Ba  Ba4       1.0  0.014242190867662428  0.34862181544303894  0.6874563694000244  1.0000
  O   O2        1.0  0.719892144203186  0.1797538697719574  0.9478210806846619  1.0000
  Ba  Ba5       1.0  0.5157255530357361  0.34830716252326965  0.6875640749931335  1.0000
  O   O3        1.0  0.7181143164634705  0.5489198565483093  0.9536188840866089  1.0000
  O   O4        1.0  0.34585103392601013  0.5500609874725342  0.9508282542228699  1.0000
  Ba  Ba6       1.0  0.539673388004303  0.8708780407905579  0.11807458102703094  1.0000
  Ti  Ti1       1.0  0.5559897422790527  0.38961106538772583  0.06257269531488419  1.0000
  Ba  Ba7       1.0  0.03807902336120606  0.8709531426429749  0.1177174374461174  1.0000
