data_image50
_chemical_formula_structural       BaTiBaO4
_chemical_formula_sum              "Ba2 Ti1 O4"
_cell_length_a       4.043530572493727
_cell_length_b       4.043812791972563
_cell_length_c       7.304977893829346
_cell_angle_alpha    106.0521817844273
_cell_angle_beta     105.99842745517441
_cell_angle_gamma    90.03189293865141

_space_group_name_H-M_alt    "P 1"
_space_group_IT_number       1

loop_
  _space_group_symop_operation_xyz
  'x, y, z'

loop_
  _atom_site_type_symbol
  _atom_site_label
  _atom_site_symmetry_multiplicity
  _atom_site_fract_x
  _atom_site_fract_y
  _atom_site_fract_z
  _atom_site_occupancy
  Ba  Ba1       1.0  0.8552189469337463  0.6080422401428223  0.9741501212120056  1.0000
  Ti  Ti1       1.0  0.49853187799453735  0.2517082095146179  0.26078689098358154  1.0000
  Ba  Ba2       1.0  0.14187781512737274  0.8948976397514343  0.5473181009292603  1.0000
  O   O1        1.0  0.6463612914085388  0.3994037508964538  0.555925726890564  1.0000
  O   O2        1.0  0.9985371828079224  0.2516438066959381  0.26047417521476746  1.0000
  O   O3        1.0  0.3505878746509552  0.1034691259264946  0.964991569519043  1.0000
  O   O4        1.0  0.498558908700943  0.7516371607780457  0.2606270909309387  1.0000
