data_image498
_chemical_formula_structural       Ba2O2BaO2Ti2O3
_chemical_formula_sum              "Ba3 O7 Ti2"
_cell_length_a       4.062635743398936
_cell_length_b       4.064041766902722
_cell_length_c       11.082275390625
_cell_angle_alpha    100.49929347759448
_cell_angle_beta     100.48761500008474
_cell_angle_gamma    89.87158125890151

_space_group_name_H-M_alt    "P 1"
_space_group_IT_number       1

loop_
  _space_group_symop_operation_xyz
  'x, y, z'

loop_
  _atom_site_type_symbol
  _atom_site_label
  _atom_site_symmetry_multiplicity
  _atom_site_fract_x
  _atom_site_fract_y
  _atom_site_fract_z
  _atom_site_occupancy
  Ba  Ba1       1.0  0.6429019570350647  0.513820469379425  0.9317965507507324  1.0000
  Ba  Ba2       1.0  0.4553104639053345  0.3269599676132202  0.5660135746002197  1.0000
  O   O1        1.0  0.13503986597061157  0.006212496664375067  0.9372434616088867  1.0000
  O   O2        1.0  0.8644165992736816  0.24357114732265472  0.37655913829803467  1.0000
  Ba  Ba3       1.0  0.2675766348838806  0.13903164863586426  0.19995102286338806  1.0000
  O   O3        1.0  0.5370017886161804  0.9155293703079224  0.7557740211486816  1.0000
  O   O4        1.0  0.7754106521606445  0.646178126335144  0.19504764676094055  1.0000
  Ti  Ti1       1.0  0.06834013760089874  0.9401793479919434  0.7558493614196777  1.0000
  Ti  Ti2       1.0  0.8436354398727417  0.7145400047302247  0.37599700689315796  1.0000
  O   O5        1.0  0.04543964937329292  0.4085063636302948  0.7557394504547119  1.0000
  O   O6        1.0  0.9546141624450684  0.8261157870292664  0.5659198760986328  1.0000
  O   O7        1.0  0.3717418313026428  0.7363126277923584  0.3766538202762604  1.0000
