data_image171
_chemical_formula_structural       Ba2TiBaO2
_chemical_formula_sum              "Ba3 Ti1 O2"
_cell_length_a       3.8229838956350974
_cell_length_b       3.82257382719349
_cell_length_c       12.825547218322754
_cell_angle_alpha    89.98314559667625
_cell_angle_beta     90.0800386555506
_cell_angle_gamma    90.12687327197337

_space_group_name_H-M_alt    "P 1"
_space_group_IT_number       1

loop_
  _space_group_symop_operation_xyz
  'x, y, z'

loop_
  _atom_site_type_symbol
  _atom_site_label
  _atom_site_symmetry_multiplicity
  _atom_site_fract_x
  _atom_site_fract_y
  _atom_site_fract_z
  _atom_site_occupancy
  Ba  Ba1       1.0  0.4235477447509766  0.020279832184314728  0.416036456823349  1.0000
  Ba  Ba2       1.0  0.923818588256836  0.518900990486145  0.10705091804265976  1.0000
  Ti  Ti1       1.0  0.4238105416297913  0.01957935281097889  0.916568398475647  1.0000
  Ba  Ba3       1.0  0.9242650866508485  0.519775927066803  0.7259474396705627  1.0000
  O   O1        1.0  0.4240580797195435  0.018107205629348755  0.06201877072453499  1.0000
  O   O2        1.0  0.42423087358474737  0.019859101623296738  0.7707763314247131  1.0000
