data_image164
_chemical_formula_structural       BaTiBa2O2TiO5
_chemical_formula_sum              "Ba3 Ti2 O7"
_cell_length_a       4.0691112985606885
_cell_length_b       4.074316087066358
_cell_length_c       11.04633617401123
_cell_angle_alpha    100.8672228619827
_cell_angle_beta     100.84130239670827
_cell_angle_gamma    90.0579908176104

_space_group_name_H-M_alt    "P 1"
_space_group_IT_number       1

loop_
  _space_group_symop_operation_xyz
  'x, y, z'

loop_
  _atom_site_type_symbol
  _atom_site_label
  _atom_site_symmetry_multiplicity
  _atom_site_fract_x
  _atom_site_fract_y
  _atom_site_fract_z
  _atom_site_occupancy
  Ba  Ba1       1.0  0.22393472492694852  0.2485872358083725  0.6847198605537415  1.0000
  Ti  Ti1       1.0  0.8053093552589415  0.829345703125  0.8753949403762817  1.0000
  Ba  Ba2       1.0  0.40875992178916926  0.43456834554672247  0.050930317491292953  1.0000
  Ba  Ba3       1.0  0.041100919246673584  0.06624679267406464  0.3184998631477356  1.0000
  O   O1        1.0  0.7378314137458801  0.7643159627914429  0.6853784322738647  1.0000
  O   O2        1.0  0.1510181725025177  0.6650921702384949  0.49516430497169495  1.0000
  Ti  Ti2       1.0  0.6140214204788208  0.6402091979980469  0.4950070083141327  1.0000
  O   O3        1.0  0.8292291164398192  0.3665720224380493  0.8740190267562866  1.0000
  O   O4        1.0  0.5514398217201233  0.577743411064148  0.3137845993041992  1.0000
  O   O5        1.0  0.34093165397644043  0.8544769883155824  0.8741241097450256  1.0000
  O   O6        1.0  0.924209177494049  0.9483132362365724  0.056781262159347534  1.0000
  O   O7        1.0  0.6400765776634216  0.17700164020061493  0.4952954649925232  1.0000
