data_image445
_chemical_formula_structural       OTiBaTiO4
_chemical_formula_sum              "O5 Ti2 Ba1"
_cell_length_a       5.079006650095135
_cell_length_b       5.369972363093437
_cell_length_c       5.649816989898682
_cell_angle_alpha    89.98719590046129
_cell_angle_beta     90.11365002187215
_cell_angle_gamma    121.52324447107681

_space_group_name_H-M_alt    "P 1"
_space_group_IT_number       1

loop_
  _space_group_symop_operation_xyz
  'x, y, z'

loop_
  _atom_site_type_symbol
  _atom_site_label
  _atom_site_symmetry_multiplicity
  _atom_site_fract_x
  _atom_site_fract_y
  _atom_site_fract_z
  _atom_site_occupancy
  O   O1        1.0  0.5119416117668152  0.8250327706336975  0.8444585204124451  1.0000
  Ti  Ti1       1.0  0.5443321466445923  0.11006050556898117  0.6245826482772827  1.0000
  Ba  Ba1       1.0  0.9367798566818237  0.7870020866394044  0.12380854785442352  1.0000
  Ti  Ti2       1.0  0.3257826864719391  0.5004463791847229  0.6238803863525391  1.0000
  O   O2        1.0  0.3563222289085388  0.24686755239963534  0.8435710668563843  1.0000
  O   O3        1.0  0.5120142102241516  0.8247351646423341  0.40390923619270325  1.0000
  O   O4        1.0  0.9345883131027222  0.4350223541259766  0.6239510774612427  1.0000
  O   O5        1.0  0.355314165353775  0.2464839518070221  0.40365391969680786  1.0000
