data_image188
_chemical_formula_structural       Ba2O2BaTiO4TiO3TiBaTiO3
_chemical_formula_sum              "Ba4 O12 Ti4"
_cell_length_a       3.771665279626488
_cell_length_b       6.138313067436293
_cell_length_c       13.70898723602295
_cell_angle_alpha    95.8304431248928
_cell_angle_beta     89.94321630589074
_cell_angle_gamma    89.98347344677872

_space_group_name_H-M_alt    "P 1"
_space_group_IT_number       1

loop_
  _space_group_symop_operation_xyz
  'x, y, z'

loop_
  _atom_site_type_symbol
  _atom_site_label
  _atom_site_symmetry_multiplicity
  _atom_site_fract_x
  _atom_site_fract_y
  _atom_site_fract_z
  _atom_site_occupancy
  Ba  Ba1       1.0  0.7396619915962219  0.8795310258865356  0.2691158652305603  1.0000
  Ba  Ba2       1.0  0.7409504652023315  0.38793283700942993  0.4752776324748993  1.0000
  O   O1        1.0  0.24072246253490448  0.5734745860099792  0.9455306529998779  1.0000
  O   O2        1.0  0.7404658198356628  0.8325562477111816  0.061469729989767075  1.0000
  Ba  Ba3       1.0  0.7413015365600586  0.777299165725708  0.817253589630127  1.0000
  Ti  Ti1       1.0  0.24138756096363068  0.8428761959075928  0.583807647228241  1.0000
  O   O3        1.0  0.23985855281352997  0.6320865154266359  0.1687820851802826  1.0000
  O   O4        1.0  0.24167653918266296  0.9928918480873109  0.7263129353523254  1.0000
  O   O5        1.0  0.7399255633354187  0.4346542358398438  0.27186354994773865  1.0000
  O   O6        1.0  0.24008235335350037  0.19582173228263858  0.3512294292449951  1.0000
  Ti  Ti2       1.0  0.240042582154274  0.3673790395259857  0.24560579657554626  1.0000
  O   O7        1.0  0.24134708940982819  0.15476498007774353  0.5677016973495483  1.0000
  O   O8        1.0  0.7412629723548889  0.33910501003265386  0.7420772314071655  1.0000
  O   O9        1.0  0.2400684356689453  0.14493271708488464  0.14883923530578613  1.0000
  Ti  Ti3       1.0  0.24011445045471191  0.812959372997284  0.03808360174298287  1.0000
  Ba  Ba4       1.0  0.7408002018928528  0.31388908624649053  0.02315042912960053  1.0000
  Ti  Ti4       1.0  0.2414664775133133  0.27841240167617803  0.6994562745094299  1.0000
  O   O10       1.0  0.2414567619562149  0.5836858153343201  0.6431464552879333  1.0000
  O   O11       1.0  0.24066658318042755  0.7264875173568727  0.4592280387878418  1.0000
  O   O12       1.0  0.24110589921474457  0.01846095733344555  0.9459676742553711  1.0000
