data_image278
_chemical_formula_structural       TiBaOBa2O2TiOBaOBaO4Ti2O2
_chemical_formula_sum              "Ti4 Ba5 O11"
_cell_length_a       5.796828130593629
_cell_length_b       5.892316224434862
_cell_length_c       10.311172485351562
_cell_angle_alpha    93.08093034585247
_cell_angle_beta     89.8844835146757
_cell_angle_gamma    119.31298272641688

_space_group_name_H-M_alt    "P 1"
_space_group_IT_number       1

loop_
  _space_group_symop_operation_xyz
  'x, y, z'

loop_
  _atom_site_type_symbol
  _atom_site_label
  _atom_site_symmetry_multiplicity
  _atom_site_fract_x
  _atom_site_fract_y
  _atom_site_fract_z
  _atom_site_occupancy
  Ti  Ti1       1.0  0.6388661861419679  0.8004616498947145  0.5455904006958008  1.0000
  Ba  Ba1       1.0  0.30569174885749817  0.1346041113138199  0.4115103781223297  1.0000
  O   O1        1.0  0.7529820799827576  0.023377008736133575  0.7276995778083801  1.0000
  Ba  Ba2       1.0  0.9467417597770691  0.41324251890182495  0.9997318387031555  1.0000
  Ba  Ba3       1.0  0.6260777115821838  0.7740887403488159  0.20541340112686157  1.0000
  O   O2        1.0  0.49890080094337463  0.5240642428398133  0.6825804710388184  1.0000
  O   O3        1.0  0.8091290593147278  0.6401963233947754  0.4402621388435364  1.0000
  Ti  Ti2       1.0  0.613213300704956  0.7476261258125305  0.8648070693016052  1.0000
  O   O4        1.0  0.3076423406600952  0.6419819593429565  0.44055768847465515  1.0000
  Ba  Ba4       1.0  0.2817113399505615  0.08358755707740784  0.7795764207839966  1.0000
  O   O5        1.0  0.4503548741340637  0.4210357069969177  0.9715632796287537  1.0000
  Ba  Ba5       1.0  0.9698157310485841  0.4636800587177277  0.6317974925041199  1.0000
  O   O6        1.0  0.9448300004005432  0.9071366786956787  0.9707505702972412  1.0000
  O   O7        1.0  0.12585574388504028  0.7740349769592285  0.20573191344738007  1.0000
  O   O8        1.0  0.44339409470558167  0.9088672995567323  0.9711560010910034  1.0000
  O   O9        1.0  0.6264122128486633  0.2742574810981751  0.20568329095840454  1.0000
  Ti  Ti3       1.0  0.9671527147293091  0.4578636586666107  0.31689348816871643  1.0000
  Ti  Ti4       1.0  0.28584644198417664  0.09098548442125322  0.09360667318105698  1.0000
  O   O10       1.0  0.1257761120796204  0.274390995502472  0.2056754231452942  1.0000
  O   O11       1.0  0.8011876344680786  0.12569685280323029  0.4394649863243102  1.0000
