data_image591
_chemical_formula_structural       OTiO2BaTiO2BaO
_chemical_formula_sum              "O6 Ti2 Ba2"
_cell_length_a       5.624588461508606
_cell_length_b       5.627837138546737
_cell_length_c       5.880421161651611
_cell_angle_alpha    118.4879759345699
_cell_angle_beta     118.43215933923119
_cell_angle_gamma    89.9545278857852

_space_group_name_H-M_alt    "P 1"
_space_group_IT_number       1

loop_
  _space_group_symop_operation_xyz
  'x, y, z'

loop_
  _atom_site_type_symbol
  _atom_site_label
  _atom_site_symmetry_multiplicity
  _atom_site_fract_x
  _atom_site_fract_y
  _atom_site_fract_z
  _atom_site_occupancy
  O   O1        1.0  0.14398600161075592  0.5592318177223206  0.29641416668891907  1.0000
  Ti  Ti1       1.0  0.36543008685112  0.7807441353797913  0.23759186267852775  1.0000
  O   O2        1.0  0.15793517231941223  0.5730404257774353  0.8227861523628235  1.0000
  O   O3        1.0  0.6454817056655884  0.060505013912916183  0.2969744205474853  1.0000
  Ba  Ba1       1.0  0.6253254413604736  0.5402505397796631  0.7570042014122009  1.0000
  Ti  Ti2       1.0  0.8641952872276306  0.27881544828414917  0.23471087217330933  1.0000
  O   O4        1.0  0.655356466770172  0.07052072882652281  0.8185287117958069  1.0000
  O   O5        1.0  0.6450453400611877  0.5587855577468871  0.29625564813613886  1.0000
  Ba  Ba2       1.0  0.1253283619880676  0.04063537716865539  0.7571296095848083  1.0000
  O   O6        1.0  0.1443309038877487  0.060630697757005685  0.2974323034286499  1.0000
