data_image348
_chemical_formula_structural       OTiO2Ti2BaO2Ti2BaOTiO6
_chemical_formula_sum              "O12 Ti6 Ba2"
_cell_length_a       3.807832007319532
_cell_length_b       7.161722766034037
_cell_length_c       10.541173934936523
_cell_angle_alpha    102.70668107162277
_cell_angle_beta     89.97118593571506
_cell_angle_gamma    89.99718163677566

_space_group_name_H-M_alt    "P 1"
_space_group_IT_number       1

loop_
  _space_group_symop_operation_xyz
  'x, y, z'

loop_
  _atom_site_type_symbol
  _atom_site_label
  _atom_site_symmetry_multiplicity
  _atom_site_fract_x
  _atom_site_fract_y
  _atom_site_fract_z
  _atom_site_occupancy
  O   O1        1.0  0.9631685614585876  0.5850309133529664  0.32008376717567444  1.0000
  Ti  Ti1       1.0  0.9624360203742981  0.6848433613777161  0.8550929427146912  1.0000
  O   O2        1.0  0.46254751086235046  0.7933395504951477  0.4785439670085907  1.0000
  O   O3        1.0  0.9624633193016052  0.11836492270231248  0.5960612893104553  1.0000
  Ti  Ti2       1.0  0.462664395570755  0.6087216734886169  0.6095953583717346  1.0000
  Ti  Ti3       1.0  0.463319331407547  0.5420163869857789  0.3263102173805237  1.0000
  Ba  Ba1       1.0  0.46264252066612244  0.9855910539627076  0.14487212896347046  1.0000
  O   O4        1.0  0.9629727602005005  0.5719125866889954  0.6163789629936218  1.0000
  O   O5        1.0  0.9626604914665222  0.7407991886138917  0.03579951077699661  1.0000
  Ti  Ti4       1.0  0.9628130793571472  0.2628382444381714  0.47389182448387146  1.0000
  Ti  Ti5       1.0  0.9628081917762756  0.4642127752304077  0.08057502657175064  1.0000
  Ba  Ba2       1.0  0.4622306227684021  0.16315177083015445  0.7910882830619812  1.0000
  O   O6        1.0  0.46288615465164185  0.35925000905990606  0.45720377564430237  1.0000
  Ti  Ti6       1.0  0.9624068140983582  0.8871518969535828  0.46325814723968506  1.0000
  O   O7        1.0  0.4627177119255066  0.5238456130027771  0.14020051062107086  1.0000
  O   O8        1.0  0.9618832468986511  0.925069034099579  0.8391171097755432  1.0000
  O   O9        1.0  0.9622868895530701  0.40861183404922485  0.900113046169281  1.0000
  O   O10       1.0  0.9633435010910034  0.03384904935956001  0.3409735858440399  1.0000
  O   O11       1.0  0.9629277586936951  0.22385825216770172  0.09758655726909637  1.0000
  O   O12       1.0  0.4625707268714905  0.6238736510276796  0.7950139045715332  1.0000
