data_image593
_chemical_formula_structural       Ba2TiBaOTiO5
_chemical_formula_sum              "Ba3 Ti2 O6"
_cell_length_a       4.035107865863629
_cell_length_b       4.0361728921306534
_cell_length_c       11.300397872924805
_cell_angle_alpha    100.26663099232752
_cell_angle_beta     100.2597807795705
_cell_angle_gamma    89.98085068184669

_space_group_name_H-M_alt    "P 1"
_space_group_IT_number       1

loop_
  _space_group_symop_operation_xyz
  'x, y, z'

loop_
  _atom_site_type_symbol
  _atom_site_label
  _atom_site_symmetry_multiplicity
  _atom_site_fract_x
  _atom_site_fract_y
  _atom_site_fract_z
  _atom_site_occupancy
  Ba  Ba1       1.0  0.5100182294845581  0.9815018773078918  0.23878918588161469  1.0000
  Ba  Ba2       1.0  0.691548228263855  0.16332590579986572  0.6032568216323853  1.0000
  Ti  Ti1       1.0  0.10850273072719574  0.580675482749939  0.43827348947525024  1.0000
  Ba  Ba3       1.0  0.3268229067325592  0.7985267043113708  0.8735447525978088  1.0000
  O   O1        1.0  0.19872476160526276  0.6704602241516113  0.617050051689148  1.0000
  Ti  Ti2       1.0  0.9098644256591797  0.3810281753540039  0.03894086182117462  1.0000
  O   O2        1.0  0.4174821376800537  0.3884480893611908  0.05399975553154944  1.0000
  O   O3        1.0  0.916817843914032  0.8888881802558899  0.05402027815580368  1.0000
  O   O4        1.0  0.8197863101959229  0.29136329889297485  0.8598087430000305  1.0000
  O   O5        1.0  0.6005750298500061  0.5732722878456116  0.42314326763153076  1.0000
  O   O6        1.0  0.10123714804649353  0.07264351099729538  0.4231063723564148  1.0000
