data_image125
_chemical_formula_structural       O2Ba
_chemical_formula_sum              "O2 Ba1"
_cell_length_a       4.3981136552641775
_cell_length_b       3.850565558699126
_cell_length_c       4.413297176361084
_cell_angle_alpha    64.25316734651716
_cell_angle_beta     52.096716661013375
_cell_angle_gamma    64.24341433641865

_space_group_name_H-M_alt    "P 1"
_space_group_IT_number       1

loop_
  _space_group_symop_operation_xyz
  'x, y, z'

loop_
  _atom_site_type_symbol
  _atom_site_label
  _atom_site_symmetry_multiplicity
  _atom_site_fract_x
  _atom_site_fract_y
  _atom_site_fract_z
  _atom_site_occupancy
  O   O1        1.0  0.6065158843994141  0.8581803441047668  0.9765113592147827  1.0000
  O   O2        1.0  0.39027667045593256  0.0759766697883606  0.7615086436271667  1.0000
  Ba  Ba1       1.0  0.9987173080444335  0.4676387906074524  0.3690793216228485  1.0000
