data_image286
_chemical_formula_structural       TiBaOBaO4
_chemical_formula_sum              "Ti1 Ba2 O5"
_cell_length_a       4.009530115618982
_cell_length_b       4.00953205017787
_cell_length_c       8.501495361328125
_cell_angle_alpha    103.59598536107346
_cell_angle_beta     101.01477607389586
_cell_angle_gamma    89.88134155960016

_space_group_name_H-M_alt    "P 1"
_space_group_IT_number       1

loop_
  _space_group_symop_operation_xyz
  'x, y, z'

loop_
  _atom_site_type_symbol
  _atom_site_label
  _atom_site_symmetry_multiplicity
  _atom_site_fract_x
  _atom_site_fract_y
  _atom_site_fract_z
  _atom_site_occupancy
  Ti  Ti1       1.0  0.06727476418018341  0.5957072377204895  0.42136019468307495  1.0000
  Ba  Ba1       1.0  0.667168140411377  0.21471978724002838  0.6588794589042664  1.0000
  O   O1        1.0  0.059819195419549935  0.08590488135814667  0.3989189565181732  1.0000
  Ba  Ba2       1.0  0.4657041430473327  0.9591253995895385  0.14753854274749756  1.0000
  O   O2        1.0  0.5625671148300171  0.5840177536010741  0.39824408292770386  1.0000
  O   O3        1.0  0.9793121814727782  0.45629918575286865  0.14021186530590057  1.0000
  O   O4        1.0  0.7322768568992614  0.3745901882648468  0.9797071814537048  1.0000
  O   O5        1.0  0.16175509989261627  0.710853338241577  0.6500295996665955  1.0000
