data_image12
_chemical_formula_structural       OBa2TiBaTiOBaOTiOBa2O7
_chemical_formula_sum              "O11 Ba6 Ti3"
_cell_length_a       6.235457080090681
_cell_length_b       6.403418358327748
_cell_length_c       12.349782943725586
_cell_angle_alpha    86.16700994936797
_cell_angle_beta     79.57204411606855
_cell_angle_gamma    60.89543966244766

_space_group_name_H-M_alt    "P 1"
_space_group_IT_number       1

loop_
  _space_group_symop_operation_xyz
  'x, y, z'

loop_
  _atom_site_type_symbol
  _atom_site_label
  _atom_site_symmetry_multiplicity
  _atom_site_fract_x
  _atom_site_fract_y
  _atom_site_fract_z
  _atom_site_occupancy
  O   O1        1.0  0.9293387532234191  0.15070103108882904  0.6238870620727539  1.0000
  Ba  Ba1       1.0  0.41205704212188715  0.8099231719970702  0.27425098419189453  1.0000
  Ba  Ba2       1.0  0.5990093350410461  0.21344894170761106  0.4821337759494782  1.0000
  Ti  Ti1       1.0  0.18819518387317663  0.8779059648513793  0.5559516549110413  1.0000
  Ba  Ba3       1.0  0.8380693197250365  0.5905802845954894  0.587432861328125  1.0000
  Ti  Ti2       1.0  0.17938099801540375  0.5551701188087462  0.7953915596008302  1.0000
  O   O2        1.0  0.6255056858062743  0.3352785110473633  0.2870047986507416  1.0000
  Ba  Ba4       1.0  0.839196741580963  0.20253956317901609  0.8428165912628175  1.0000
  O   O3        1.0  0.06626375764608383  0.8075931072235107  0.44863528013229376  1.0000
  Ti  Ti3       1.0  0.7705641984939574  0.18655544519424438  0.15320523083209991  1.0000
  O   O4        1.0  0.8633621335029601  0.5997464060783386  0.8000536561012269  1.0000
  Ba  Ba5       1.0  0.49031764268875117  0.8590885996818542  0.9600971341133119  1.0000
  Ba  Ba6       1.0  0.13550405204296112  0.5108593702316284  0.07509253174066544  1.0000
  O   O5        1.0  0.10912177711725234  0.08778084814548491  0.1288118064403534  1.0000
  O   O6        1.0  0.618119180202484  0.42697331309318537  0.05634192004799844  1.0000
  O   O7        1.0  0.15789292752742767  0.7733734846115112  0.8919748663902284  1.0000
  O   O8        1.0  0.47150972485542303  0.8798562884330748  0.4837383329868317  1.0000
  O   O9        1.0  0.7216693162918091  0.9270670413970947  0.131746307015419  1.0000
  O   O10       1.0  0.29086658358573914  0.5926858186721802  0.643572211265564  1.0000
  O   O11       1.0  0.36084073781967163  0.27109667658805847  0.8600488305091859  1.0000
