data_image523
_chemical_formula_structural       Ba2O3Ti2O3
_chemical_formula_sum              "Ba2 O6 Ti2"
_cell_length_a       4.329648971557675
_cell_length_b       5.6290145222886965
_cell_length_c       5.632846355438232
_cell_angle_alpha    90.04127733698068
_cell_angle_beta     90.00000933466754
_cell_angle_gamma    89.98608940936907

_space_group_name_H-M_alt    "P 1"
_space_group_IT_number       1

loop_
  _space_group_symop_operation_xyz
  'x, y, z'

loop_
  _atom_site_type_symbol
  _atom_site_label
  _atom_site_symmetry_multiplicity
  _atom_site_fract_x
  _atom_site_fract_y
  _atom_site_fract_z
  _atom_site_occupancy
  Ba  Ba1       1.0  0.30132463574409485  0.20750242471694946  0.11236049234867097  1.0000
  Ba  Ba2       1.0  0.3027319312095642  0.7080963253974916  0.6122706532478333  1.0000
  O   O1        1.0  0.7597062587738037  0.45842674374580383  0.8621265888214111  1.0000
  O   O2        1.0  0.23290133476257324  0.7084429264068604  0.11236628890037538  1.0000
  O   O3        1.0  0.7588931322097778  0.9582768678665161  0.8619508147239685  1.0000
  Ti  Ti1       1.0  0.8198398351669312  0.20794665813446045  0.6125255823135376  1.0000
  Ti  Ti2       1.0  0.8210382461547852  0.7069753408432007  0.11231916397809984  1.0000
  O   O4        1.0  0.7594455480575562  0.45858150720596313  0.362416535615921  1.0000
  O   O5        1.0  0.7585285902023315  0.9582853913307191  0.3626554012298584  1.0000
  O   O6        1.0  0.23307868838310242  0.20818731188774112  0.6123233437538147  1.0000
