data_image120
_chemical_formula_structural       Ba2O3TiO
_chemical_formula_sum              "Ba2 O4 Ti1"
_cell_length_a       4.044962442015841
_cell_length_b       4.047036260220802
_cell_length_c       7.332304954528809
_cell_angle_alpha    105.94391663434016
_cell_angle_beta     105.91445059709528
_cell_angle_gamma    89.99324785002162

_space_group_name_H-M_alt    "P 1"
_space_group_IT_number       1

loop_
  _space_group_symop_operation_xyz
  'x, y, z'

loop_
  _atom_site_type_symbol
  _atom_site_label
  _atom_site_symmetry_multiplicity
  _atom_site_fract_x
  _atom_site_fract_y
  _atom_site_fract_z
  _atom_site_occupancy
  Ba  Ba1       1.0  0.0925455242395401  0.4881137609481812  0.5392177700996399  1.0000
  Ba  Ba2       1.0  0.8061604499816895  0.20150893926620483  0.9657008647918701  1.0000
  O   O1        1.0  0.9493148922920227  0.8451869487762452  0.2524884343147278  1.0000
  O   O2        1.0  0.5969045758247375  0.9925355315208436  0.5472747683525085  1.0000
  O   O3        1.0  0.3014970123767853  0.6967828273773194  0.9566351175308228  1.0000
  Ti  Ti1       1.0  0.4489637017250061  0.8446338176727295  0.2524573802947998  1.0000
  O   O4        1.0  0.4496283531188965  0.344743698835373  0.2524045407772064  1.0000
