data_image256
_chemical_formula_structural       TiBa2O4
_chemical_formula_sum              "Ti1 Ba2 O4"
_cell_length_a       4.035485185811453
_cell_length_b       4.037251981290819
_cell_length_c       7.323848724365234
_cell_angle_alpha    105.94264120374514
_cell_angle_beta     105.92898741936318
_cell_angle_gamma    89.98152002863142

_space_group_name_H-M_alt    "P 1"
_space_group_IT_number       1

loop_
  _space_group_symop_operation_xyz
  'x, y, z'

loop_
  _atom_site_type_symbol
  _atom_site_label
  _atom_site_symmetry_multiplicity
  _atom_site_fract_x
  _atom_site_fract_y
  _atom_site_fract_z
  _atom_site_occupancy
  Ti  Ti1       1.0  0.18639180064201355  0.6935218572616576  0.7525337338447571  1.0000
  Ba  Ba1       1.0  0.5433863997459412  0.05045137554407119  0.4662174880504608  1.0000
  Ba  Ba2       1.0  0.8293348550796509  0.3364956974983215  0.038755692541599274  1.0000
  O   O1        1.0  0.18630830943584442  0.19346933066844937  0.752570390701294  1.0000
  O   O2        1.0  0.6863784193992615  0.6934475302696228  0.7524304986000061  1.0000
  O   O3        1.0  0.3339349925518036  0.8415210843086243  0.04786186665296551  1.0000
  O   O4        1.0  0.03848816826939582  0.54512882232666  0.4567166268825531  1.0000
