data_image427
_chemical_formula_structural       BaTiBaTiO4
_chemical_formula_sum              "Ba2 Ti2 O4"
_cell_length_a       3.4736021148341734
_cell_length_b       6.859403417642179
_cell_length_c       6.21300745010376
_cell_angle_alpha    100.75068017638297
_cell_angle_beta     90.20054367896125
_cell_angle_gamma    104.61269275538324

_space_group_name_H-M_alt    "P 1"
_space_group_IT_number       1

loop_
  _space_group_symop_operation_xyz
  'x, y, z'

loop_
  _atom_site_type_symbol
  _atom_site_label
  _atom_site_symmetry_multiplicity
  _atom_site_fract_x
  _atom_site_fract_y
  _atom_site_fract_z
  _atom_site_occupancy
  Ba  Ba1       1.0  0.024467302486300465  0.03879714384675026  0.0874633714556694  1.0000
  Ti  Ti1       1.0  0.23582395911216733  0.4613286852836609  0.8491393327713013  1.0000
  Ba  Ba2       1.0  0.827463150024414  0.6438161134719849  0.363235741853714  1.0000
  Ti  Ti2       1.0  0.6166737079620361  0.2220289707183838  0.6015015244483948  1.0000
  O   O1        1.0  0.36329150199890137  0.7183552980422974  0.00893745943903925  1.0000
  O   O2        1.0  0.48803004622459406  0.9638588428497314  0.44072225689888  1.0000
  O   O3        1.0  0.6706440448760986  0.3303903043270111  0.9394224286079407  1.0000
  O   O4        1.0  0.1821497231721878  0.35506194829940796  0.5119191408157349  1.0000
