data_image91
_chemical_formula_structural       Ba3O5Ti2O3TiO2
_chemical_formula_sum              "Ba3 O10 Ti3"
_cell_length_a       3.9672757051060805
_cell_length_b       3.973791000736799
_cell_length_c       15.313217163085938
_cell_angle_alpha    97.48918197022141
_cell_angle_beta     97.45436170356349
_cell_angle_gamma    90.00186021549636

_space_group_name_H-M_alt    "P 1"
_space_group_IT_number       1

loop_
  _space_group_symop_operation_xyz
  'x, y, z'

loop_
  _atom_site_type_symbol
  _atom_site_label
  _atom_site_symmetry_multiplicity
  _atom_site_fract_x
  _atom_site_fract_y
  _atom_site_fract_z
  _atom_site_occupancy
  Ba  Ba1       1.0  0.22482135891914365  0.47308865189552307  0.42347073554992676  1.0000
  Ba  Ba2       1.0  0.6266487836837767  0.8747306466102601  0.22599075734615326  1.0000
  Ba  Ba3       1.0  0.48864674568176264  0.7369124293327333  0.9494943022727966  1.0000
  O   O1        1.0  0.28785660862922663  0.03575288876891136  0.5469076633453369  1.0000
  O   O2        1.0  0.4232055842876434  0.17186763882637027  0.8191105127334595  1.0000
  O   O3        1.0  0.7874194383621215  0.5359176993370057  0.5469321608543396  1.0000
  O   O4        1.0  0.060706626623868935  0.808345139026642  0.09378677606582642  1.0000
  O   O5        1.0  0.9231462478637694  0.6716380715370178  0.8196489214897156  1.0000
  Ti  Ti1       1.0  0.06019788980484008  0.30759063363075256  0.09276334196329117  1.0000
  Ti  Ti2       1.0  0.9163252115249633  0.16483104228973391  0.8054312467575073  1.0000
  O   O6        1.0  0.719408094882965  0.9678670167922974  0.4120660722255707  1.0000
  O   O7        1.0  0.5606968998908995  0.30831241607666016  0.09390906244516373  1.0000
  O   O8        1.0  0.9923527240753173  0.24045003950595858  0.9580784440040588  1.0000
  Ti  Ti3       1.0  0.7931370139122008  0.04148432984948158  0.5582764148712158  1.0000
  O   O9        1.0  0.12714077532291412  0.3752274513244629  0.2272069752216339  1.0000
  O   O10       1.0  0.8556256294250487  0.10357841849327089  0.6838552355766296  1.0000
