data_image2
_chemical_formula_structural       BaO3TiO
_chemical_formula_sum              "Ba1 O4 Ti1"
_cell_length_a       3.8671135835124346
_cell_length_b       3.955651217551887
_cell_length_c       6.576888084411621
_cell_angle_alpha    107.06452649341715
_cell_angle_beta     89.85920498759783
_cell_angle_gamma    90.0413729612019

_space_group_name_H-M_alt    "P 1"
_space_group_IT_number       1

loop_
  _space_group_symop_operation_xyz
  'x, y, z'

loop_
  _atom_site_type_symbol
  _atom_site_label
  _atom_site_symmetry_multiplicity
  _atom_site_fract_x
  _atom_site_fract_y
  _atom_site_fract_z
  _atom_site_occupancy
  Ba  Ba1       1.0  0.38716137409210205  0.338672935962677  0.6422610282897949  1.0000
  O   O1        1.0  0.38712313771247864  0.010588440112769602  0.9856602549552919  1.0000
  O   O2        1.0  0.8867312073707581  0.8696906566619873  0.7034644484519958  1.0000
  O   O3        1.0  0.8872418403625488  0.17826968431472778  0.32580792903900146  1.0000
  Ti  Ti1       1.0  0.8871325254440308  0.036710537970066064  0.04022153466939926  1.0000
  O   O4        1.0  0.8873832821846008  0.5089161396026611  0.9886580109596254  1.0000
