data_image318
_chemical_formula_structural       OBaTiO
_chemical_formula_sum              "O2 Ba1 Ti1"
_cell_length_a       3.3178309443230107
_cell_length_b       3.3171595423757076
_cell_length_c       6.309717655181885
_cell_angle_alpha    74.78243606968506
_cell_angle_beta     74.77393169372674
_cell_angle_gamma    60.03899619227272

_space_group_name_H-M_alt    "P 1"
_space_group_IT_number       1

loop_
  _space_group_symop_operation_xyz
  'x, y, z'

loop_
  _atom_site_type_symbol
  _atom_site_label
  _atom_site_symmetry_multiplicity
  _atom_site_fract_x
  _atom_site_fract_y
  _atom_site_fract_z
  _atom_site_occupancy
  O   O1        1.0  0.5124605298042297  0.6234049797058105  0.10246484726667404  1.0000
  Ba  Ba1       1.0  0.28992295265197754  0.40107154846191406  0.7703543901443481  1.0000
  Ti  Ti1       1.0  0.7893993258476257  0.9007281064987184  0.269256055355072  1.0000
  O   O2        1.0  0.067031629383564  0.17852506041526794  0.43742185831069946  1.0000
