data_image102
_chemical_formula_structural       BaOBaO3TiOTiO2BaO2Ti
_chemical_formula_sum              "Ba3 O9 Ti3"
_cell_length_a       3.9631316161724928
_cell_length_b       3.9611678410708877
_cell_length_c       13.922442436218262
_cell_angle_alpha    89.92018490997557
_cell_angle_beta     89.98233280538452
_cell_angle_gamma    89.93873571006237

_space_group_name_H-M_alt    "P 1"
_space_group_IT_number       1

loop_
  _space_group_symop_operation_xyz
  'x, y, z'

loop_
  _atom_site_type_symbol
  _atom_site_label
  _atom_site_symmetry_multiplicity
  _atom_site_fract_x
  _atom_site_fract_y
  _atom_site_fract_z
  _atom_site_occupancy
  Ba  Ba1       1.0  0.8700842261314392  0.36995759606361395  0.43321928381919855  1.0000
  O   O1        1.0  0.38053151965141296  0.8821883201599122  0.13913652300834656  1.0000
  Ba  Ba2       1.0  0.8658619523048401  0.3667244613170624  0.14433139562606812  1.0000
  O   O2        1.0  0.8736114501953125  0.8720385432243347  0.5785707831382751  1.0000
  O   O3        1.0  0.37618643045425415  0.8763354420661927  0.43403604626655573  1.0000
  O   O4        1.0  0.8869486451148987  0.8792910575866699  0.2821492850780487  1.0000
  Ti  Ti1       1.0  0.3558346629142761  0.8558204174041748  0.2796245217323303  1.0000
  O   O5        1.0  0.8720860481262207  0.8740597367286683  0.7982442378997803  1.0000
  Ti  Ti2       1.0  0.3724312484264374  0.8722108006477356  0.5714225769042969  1.0000
  O   O6        1.0  0.8729112148284912  0.37481376528739935  0.9384717941284179  1.0000
  O   O7        1.0  0.3790142834186554  0.3876056373119355  0.28209832310676575  1.0000
  Ba  Ba3       1.0  0.372428834438324  0.8740508556365967  0.9335543513298034  1.0000
  O   O8        1.0  0.37286296486854553  0.37333551049232483  0.5792785286903381  1.0000
  O   O9        1.0  0.3717738687992096  0.37397369742393494  0.7984116673469543  1.0000
  Ti  Ti3       1.0  0.8723159432411194  0.3732670843601227  0.8026842474937438  1.0000
