data_image32
_chemical_formula_structural       OTiOBa
_chemical_formula_sum              "O2 Ti1 Ba1"
_cell_length_a       3.316233559920028
_cell_length_b       3.3172528086811743
_cell_length_c       6.285289764404297
_cell_angle_alpha    74.74627740218766
_cell_angle_beta     74.71987753289004
_cell_angle_gamma    60.011259347124

_space_group_name_H-M_alt    "P 1"
_space_group_IT_number       1

loop_
  _space_group_symop_operation_xyz
  'x, y, z'

loop_
  _atom_site_type_symbol
  _atom_site_label
  _atom_site_symmetry_multiplicity
  _atom_site_fract_x
  _atom_site_fract_y
  _atom_site_fract_z
  _atom_site_occupancy
  O   O1        1.0  0.037522405385971104  0.6304200887680054  0.7245837450027466  1.0000
  Ti  Ti1       1.0  0.3158206045627594  0.9072907567024231  0.8922868371009827  1.0000
  O   O2        1.0  0.5928519368171693  0.1851050704717636  0.0594932585954666  1.0000
  Ba  Ba1       1.0  0.8156726956367494  0.40752288699150085  0.3919818699359894  1.0000
