data_image258
_chemical_formula_structural       OBa2O2TiOTiBaO2BaTiO5TiO
_chemical_formula_sum              "O12 Ba4 Ti4"
_cell_length_a       4.269284725628708
_cell_length_b       7.978971090966134
_cell_length_c       8.922926902770996
_cell_angle_alpha    116.63131215763734
_cell_angle_beta     90.00082212721063
_cell_angle_gamma    89.98418378657274

_space_group_name_H-M_alt    "P 1"
_space_group_IT_number       1

loop_
  _space_group_symop_operation_xyz
  'x, y, z'

loop_
  _atom_site_type_symbol
  _atom_site_label
  _atom_site_symmetry_multiplicity
  _atom_site_fract_x
  _atom_site_fract_y
  _atom_site_fract_z
  _atom_site_occupancy
  O   O1        1.0  0.616570234298706  0.8253908753395082  0.8877571821212769  1.0000
  Ba  Ba1       1.0  0.6758657693862915  0.9522253274917603  0.6380054950714111  1.0000
  Ba  Ba2       1.0  0.6777564287185669  0.7009663581848145  0.13878934085369105  1.0000
  O   O2        1.0  0.13680031895637512  0.2023370862007141  0.6390845775604248  1.0000
  O   O3        1.0  0.13862991333007812  0.32681602239608765  0.38898420333862305  1.0000
  Ti  Ti1       1.0  0.19524331390857697  0.32604628801345825  0.8888394832611084  1.0000
  O   O4        1.0  0.1389964073896408  0.826987087726593  0.38834953308105463  1.0000
  Ti  Ti2       1.0  0.19482748210430145  0.576015055179596  0.3882693946361541  1.0000
  Ba  Ba3       1.0  0.6767928004264832  0.20105482637882233  0.13920556008815765  1.0000
  O   O5        1.0  0.6126356720924377  0.5757848024368286  0.3889900147914886  1.0000
  O   O6        1.0  0.6143330335617065  0.32464924454689026  0.8884721994400024  1.0000
  Ba  Ba4       1.0  0.6760818362236023  0.4509833753108978  0.6383086442947388  1.0000
  Ti  Ti3       1.0  0.19386327266693115  0.0766141414642334  0.38853672146797175  1.0000
  O   O7        1.0  0.13875333964824677  0.07448653876781464  0.8881617784500122  1.0000
  O   O8        1.0  0.1370125114917755  0.4514049887657166  0.13816450536251065  1.0000
  O   O9        1.0  0.6139340996742249  0.07731230556964874  0.3899651765823364  1.0000
  O   O10       1.0  0.1384478211402893  0.576896071434021  0.8890051245689391  1.0000
  O   O11       1.0  0.13591396808624268  0.7012032270431519  0.6385916471481323  1.0000
  Ti  Ti4       1.0  0.19557449221611023  0.8262748122215271  0.8894793391227721  1.0000
  O   O12       1.0  0.13834676146507263  0.9520834684371948  0.1398573219776153  1.0000
