data_image368
_chemical_formula_structural       OTiO
_chemical_formula_sum              "O2 Ti1"
_cell_length_a       3.401086373653692
_cell_length_b       3.4035022228027128
_cell_length_c       3.40395188331604
_cell_angle_alpha    60.03655739389372
_cell_angle_beta     60.049712425047595
_cell_angle_gamma    60.049090913467566

_space_group_name_H-M_alt    "P 1"
_space_group_IT_number       1

loop_
  _space_group_symop_operation_xyz
  'x, y, z'

loop_
  _atom_site_type_symbol
  _atom_site_label
  _atom_site_symmetry_multiplicity
  _atom_site_fract_x
  _atom_site_fract_y
  _atom_site_fract_z
  _atom_site_occupancy
  O   O1        1.0  0.869120180606842  0.5221419930458069  0.36251553893089294  1.0000
  Ti  Ti1       1.0  0.118742048740387  0.7720513939857483  0.6119309067726135  1.0000
  O   O2        1.0  0.36914581060409546  0.022079642862081528  0.8627963066101074  1.0000
