data_image543
_chemical_formula_structural       BaTiBaO3Ba2O2TiO3
_chemical_formula_sum              "Ba4 Ti2 O8"
_cell_length_a       6.138378823601241
_cell_length_b       6.146645688424897
_cell_length_c       8.050753593444824
_cell_angle_alpha    89.87173839221101
_cell_angle_beta     89.8244461558395
_cell_angle_gamma    63.57442956126648

_space_group_name_H-M_alt    "P 1"
_space_group_IT_number       1

loop_
  _space_group_symop_operation_xyz
  'x, y, z'

loop_
  _atom_site_type_symbol
  _atom_site_label
  _atom_site_symmetry_multiplicity
  _atom_site_fract_x
  _atom_site_fract_y
  _atom_site_fract_z
  _atom_site_occupancy
  Ba  Ba1       1.0  0.8267162442207336  0.21452966332435608  0.6462184190750122  1.0000
  Ti  Ti1       1.0  0.5506182312965393  0.8336921930313109  0.6459125876426697  1.0000
  Ba  Ba2       1.0  0.17159561812877655  0.5086050629615784  0.8966473340988159  1.0000
  O   O1        1.0  0.9951627254486085  0.18147695064544678  0.9642926454544067  1.0000
  O   O2        1.0  0.9960877895355226  0.18094603717327118  0.3284020721912384  1.0000
  O   O3        1.0  0.5010638236999512  0.6830102205276489  0.4645777940750122  1.0000
  Ba  Ba3       1.0  0.17252996563911444  0.5082983374595642  0.3962571322917938  1.0000
  Ba  Ba4       1.0  0.4657112360000611  0.8541420698165892  0.14627967774868011  1.0000
  O   O4        1.0  0.39153555035591125  0.16959123313426971  0.6463099122047424  1.0000
  O   O5        1.0  0.49993368983268743  0.6831284165382385  0.8279619216918945  1.0000
  Ti  Ti2       1.0  0.846614956855774  0.1303177922964096  0.1465199738740921  1.0000
  O   O6        1.0  0.924471139907837  0.8020482063293457  0.14645084738731384  1.0000
  O   O7        1.0  0.5094398856163025  0.28657805919647217  0.1463111937046051  1.0000
  O   O8        1.0  0.879343330860138  0.7584958076477051  0.6462193131446838  1.0000
