data_image114
_chemical_formula_structural       Ba2TiOTiBaO6
_chemical_formula_sum              "Ba3 Ti2 O7"
_cell_length_a       4.074817407169483
_cell_length_b       4.071316180864257
_cell_length_c       11.112250328063965
_cell_angle_alpha    100.47236278599242
_cell_angle_beta     100.51595918143909
_cell_angle_gamma    89.9902627039449

_space_group_name_H-M_alt    "P 1"
_space_group_IT_number       1

loop_
  _space_group_symop_operation_xyz
  'x, y, z'

loop_
  _atom_site_type_symbol
  _atom_site_label
  _atom_site_symmetry_multiplicity
  _atom_site_fract_x
  _atom_site_fract_y
  _atom_site_fract_z
  _atom_site_occupancy
  Ba  Ba1       1.0  0.2169874608516693  0.2996632158756256  0.8186028599739075  1.0000
  Ba  Ba2       1.0  0.8512076735496521  0.9234743714332581  0.08657874166965485  1.0000
  Ti  Ti1       1.0  0.45481646060943604  0.4956012666225434  0.26171186566352844  1.0000
  O   O1        1.0  0.7086901068687439  0.7917343378067017  0.8226789236068726  1.0000
  Ti  Ti2       1.0  0.6429798007011414  0.7232747673988342  0.6421375274658203  1.0000
  Ba  Ba3       1.0  0.03606448322534561  0.11053287982940675  0.45198401808738714  1.0000
  O   O2        1.0  0.10975846648216248  0.7030754089355469  0.6410419344902039  1.0000
  O   O3        1.0  0.9192266464233398  0.5211217999458313  0.2626555562019348  1.0000
  O   O4        1.0  0.6204097867012024  0.19390977919101715  0.640943169593811  1.0000
  O   O5        1.0  0.429513543844223  0.02969413623213768  0.2628554105758667  1.0000
  O   O6        1.0  0.522310197353363  0.611038088798523  0.45134714245796204  1.0000
  O   O7        1.0  0.33680590987205505  0.43087697029113775  0.08087754249572755  1.0000
