data_image272
_chemical_formula_structural       Ba2O4Ti2O
_chemical_formula_sum              "Ba2 O5 Ti2"
_cell_length_a       3.681488701129225
_cell_length_b       6.4263578822696426
_cell_length_c       7.211979866027832
_cell_angle_alpha    71.33995940704399
_cell_angle_beta     75.56967577358851
_cell_angle_gamma    75.67738220404225

_space_group_name_H-M_alt    "P 1"
_space_group_IT_number       1

loop_
  _space_group_symop_operation_xyz
  'x, y, z'

loop_
  _atom_site_type_symbol
  _atom_site_label
  _atom_site_symmetry_multiplicity
  _atom_site_fract_x
  _atom_site_fract_y
  _atom_site_fract_z
  _atom_site_occupancy
  Ba  Ba1       1.0  0.4376029968261719  0.8444643616676331  0.661893904209137  1.0000
  Ba  Ba2       1.0  0.792533278465271  0.4518871605396271  0.29553303122520447  1.0000
  O   O1        1.0  0.1390520930290222  0.03410964459180832  0.9888995885848999  1.0000
  O   O2        1.0  0.6868128776550293  0.45849567651748663  0.9429876804351807  1.0000
  O   O3        1.0  0.4248492419719696  0.132258340716362  0.2995646297931671  1.0000
  O   O4        1.0  0.6854782700538635  0.21334131062030792  0.7001517415046692  1.0000
  Ti  Ti1       1.0  0.07885357737541199  0.3404708802700043  0.7558555006980896  1.0000
  Ti  Ti2       1.0  0.5722911953926086  0.1390027403831482  0.038772739470005035  1.0000
  O   O5        1.0  0.11670260131359096  0.5869500637054443  0.5360820889472961  1.0000
