data_image40
_chemical_formula_structural       Ti2BaO2BaTiBaO8
_chemical_formula_sum              "Ti3 Ba3 O10"
_cell_length_a       5.661741760972769
_cell_length_b       6.094265197493547
_cell_length_c       9.92042350769043
_cell_angle_alpha    101.3916779788351
_cell_angle_beta     89.63038683786381
_cell_angle_gamma    109.81435091514139

_space_group_name_H-M_alt    "P 1"
_space_group_IT_number       1

loop_
  _space_group_symop_operation_xyz
  'x, y, z'

loop_
  _atom_site_type_symbol
  _atom_site_label
  _atom_site_symmetry_multiplicity
  _atom_site_fract_x
  _atom_site_fract_y
  _atom_site_fract_z
  _atom_site_occupancy
  Ti  Ti1       1.0  0.5129090547561646  0.6809933185577393  0.227727472782135  1.0000
  Ti  Ti2       1.0  0.37223291397094727  0.3888301253318787  0.8955717086791992  1.0000
  Ba  Ba1       1.0  0.8315728306770325  0.3514426052570343  0.33735421299934387  1.0000
  O   O1        1.0  0.1558457463979721  0.5039184093475342  0.8016196489334106  1.0000
  O   O2        1.0  0.7141968011856079  0.19989167153835297  0.5717334747314453  1.0000
  Ba  Ba2       1.0  0.07096212357282639  0.8454309105873108  0.03419612348079679  1.0000
  Ti  Ti3       1.0  0.8646858930587769  0.4661290645599365  0.6953795552253723  1.0000
  Ba  Ba3       1.0  0.473450630903244  0.7953673005104065  0.6279758214950562  1.0000
  O   O3        1.0  0.1996615529060364  0.42113852500915533  0.07142066955566406  1.0000
  O   O4        1.0  0.3672220706939697  0.5393571257591248  0.3651704788208008  1.0000
  O   O5        1.0  0.4788709580898285  0.9399461746215821  0.18708255887031555  1.0000
  O   O6        1.0  0.9610050320625305  0.6741974949836732  0.5870015025138855  1.0000
  O   O7        1.0  0.8521265983581543  0.80147522687912  0.2789207696914673  1.0000
  O   O8        1.0  0.592635750770569  0.4725609421730042  0.07081694900989532  1.0000
  O   O9        1.0  0.6577416658401489  0.5777939558029175  0.8141013979911804  1.0000
  O   O10       1.0  0.3199121654033661  0.08521498739719392  0.8412877321243286  1.0000
