data_image160
_chemical_formula_structural       BaOTiO3BaTiO3
_chemical_formula_sum              "Ba2 O7 Ti2"
_cell_length_a       3.960352850273841
_cell_length_b       3.963128086867985
_cell_length_c       11.160604476928711
_cell_angle_alpha    100.24316889983803
_cell_angle_beta     100.20697567877697
_cell_angle_gamma    90.13000165864801

_space_group_name_H-M_alt    "P 1"
_space_group_IT_number       1

loop_
  _space_group_symop_operation_xyz
  'x, y, z'

loop_
  _atom_site_type_symbol
  _atom_site_label
  _atom_site_symmetry_multiplicity
  _atom_site_fract_x
  _atom_site_fract_y
  _atom_site_fract_z
  _atom_site_occupancy
  Ba  Ba1       1.0  0.9139163494110106  0.3390260636806488  0.48525771498680115  1.0000
  O   O1        1.0  0.326032668352127  0.2509896457195282  0.3102833330631256  1.0000
  Ti  Ti1       1.0  0.3193350434303283  0.7444349527359008  0.29662084579467773  1.0000
  O   O2        1.0  0.8257593512535094  0.7513585686683654  0.31046658754348755  1.0000
  O   O3        1.0  0.13842526078224182  0.0643080621957779  0.9354556798934937  1.0000
  O   O4        1.0  0.2324888557195663  0.6578565835952758  0.1230325698852539  1.0000
  Ba  Ba2       1.0  0.5507581830024719  0.9763922095298766  0.7606291770935059  1.0000
  Ti  Ti2       1.0  0.1456523984670639  0.5711455345153809  0.9495893120765686  1.0000
  O   O5        1.0  0.6389652490615844  0.5643155574798584  0.9359567761421204  1.0000
  O   O6        1.0  0.4169034361839294  0.8424215912818909  0.49261167645454407  1.0000
  O   O7        1.0  0.047865148633718484  0.4732421040534973  0.7538098692893982  1.0000
