data_image373
_chemical_formula_structural       BaTiO2
_chemical_formula_sum              "Ba1 Ti1 O2"
_cell_length_a       4.098423450990369
_cell_length_b       4.100678538255933
_cell_length_c       6.704431056976318
_cell_angle_alpha    72.20585004461324
_cell_angle_beta     72.22693431280965
_cell_angle_gamma    60.01055585131332

_space_group_name_H-M_alt    "P 1"
_space_group_IT_number       1

loop_
  _space_group_symop_operation_xyz
  'x, y, z'

loop_
  _atom_site_type_symbol
  _atom_site_label
  _atom_site_symmetry_multiplicity
  _atom_site_fract_x
  _atom_site_fract_y
  _atom_site_fract_z
  _atom_site_occupancy
  Ba  Ba1       1.0  0.33340546488761896  0.5164622664451599  0.7900858521461486  1.0000
  Ti  Ti1       1.0  0.8318455219268798  0.01587575115263462  0.29029515385627747  1.0000
  O   O1        1.0  0.9263039231300353  0.10962256044149397  0.009724457748234305  1.0000
  O   O2        1.0  0.7397387027740479  0.9232503175735473  0.5708866119384766  1.0000
