data_image265
_chemical_formula_structural       OBaTiO
_chemical_formula_sum              "O2 Ba1 Ti1"
_cell_length_a       3.2765658720479682
_cell_length_b       3.2768136480431544
_cell_length_c       6.518644332885742
_cell_angle_alpha    75.3689574537102
_cell_angle_beta     75.389645340635
_cell_angle_gamma    60.01007468574102

_space_group_name_H-M_alt    "P 1"
_space_group_IT_number       1

loop_
  _space_group_symop_operation_xyz
  'x, y, z'

loop_
  _atom_site_type_symbol
  _atom_site_label
  _atom_site_symmetry_multiplicity
  _atom_site_fract_x
  _atom_site_fract_y
  _atom_site_fract_z
  _atom_site_occupancy
  O   O1        1.0  0.8960554599761963  0.4364453256130219  0.19465501606464386  1.0000
  Ba  Ba1       1.0  0.6817466616630554  0.2221725434064865  0.8418992161750793  1.0000
  Ti  Ti1       1.0  0.5070905685424805  0.04635074734687805  0.36117708683013916  1.0000
  O   O2        1.0  0.11985930055379868  0.6602399349212646  0.5244105458259581  1.0000
