data_image451
_chemical_formula_structural       OTiO3BaTiOBaO
_chemical_formula_sum              "O6 Ti2 Ba2"
_cell_length_a       4.513279645602984
_cell_length_b       5.5898371081519755
_cell_length_c       5.592789173126221
_cell_angle_alpha    89.92872264881329
_cell_angle_beta     89.92818306441431
_cell_angle_gamma    89.96611110743221

_space_group_name_H-M_alt    "P 1"
_space_group_IT_number       1

loop_
  _space_group_symop_operation_xyz
  'x, y, z'

loop_
  _atom_site_type_symbol
  _atom_site_label
  _atom_site_symmetry_multiplicity
  _atom_site_fract_x
  _atom_site_fract_y
  _atom_site_fract_z
  _atom_site_occupancy
  O   O1        1.0  0.9824498891830444  0.922368049621582  0.3225988745689392  1.0000
  Ti  Ti1       1.0  0.9069962501525879  0.6720231771469116  0.572063148021698  1.0000
  O   O2        1.0  0.981823742389679  0.4223135709762574  0.32234892249107355  1.0000
  O   O3        1.0  0.9821109175682068  0.4226858615875244  0.8220688104629517  1.0000
  O   O4        1.0  0.5138472318649292  0.6722840666770935  0.5724660754203796  1.0000
  Ba  Ba1       1.0  0.42249175906181335  0.1720285415649414  0.5723183155059814  1.0000
  Ti  Ti2       1.0  0.9074841141700745  0.17194804549217224  0.0723290741443634  1.0000
  O   O5        1.0  0.5142971873283386  0.1722247451543808  0.0724090039730072  1.0000
  Ba  Ba2       1.0  0.42183905839920044  0.6722497940063477  0.07245036959648132  1.0000
  O   O6        1.0  0.9824330806732178  0.9218000769615174  0.8221102356910706  1.0000
