data_image379
_chemical_formula_structural       TiBaOTi2O3BaOBaO5
_chemical_formula_sum              "Ti3 Ba3 O10"
_cell_length_a       3.895917783865933
_cell_length_b       3.894712137479615
_cell_length_c       15.37661075592041
_cell_angle_alpha    89.9832617099286
_cell_angle_beta     89.98520831367891
_cell_angle_gamma    89.97118593516808

_space_group_name_H-M_alt    "P 1"
_space_group_IT_number       1

loop_
  _space_group_symop_operation_xyz
  'x, y, z'

loop_
  _atom_site_type_symbol
  _atom_site_label
  _atom_site_symmetry_multiplicity
  _atom_site_fract_x
  _atom_site_fract_y
  _atom_site_fract_z
  _atom_site_occupancy
  Ti  Ti1       1.0  0.30541294813156133  0.5625464916229248  0.14235204458236694  1.0000
  Ba  Ba1       1.0  0.8053710460662843  0.06268854439258574  0.9943708181381226  1.0000
  O   O1        1.0  0.3056018948554993  0.06296934932470322  0.8620221018791199  1.0000
  Ti  Ti2       1.0  0.30512806773185736  0.5631697177886963  0.4493066370487213  1.0000
  Ti  Ti3       1.0  0.305306762456894  0.5630360841751098  0.8435283303260803  1.0000
  O   O2        1.0  0.8054762482643129  0.5626842379570006  0.13450053334236145  1.0000
  O   O3        1.0  0.8048308491706849  0.5631712675094603  0.42111682891845703  1.0000
  O   O4        1.0  0.3052783012390137  0.06270655244588852  0.13482770323753357  1.0000
  Ba  Ba2       1.0  0.8047972321510316  0.06244909390807151  0.291999876499176  1.0000
  O   O5        1.0  0.30482318997383123  0.5625455975532531  0.5623622536659241  1.0000
  Ba  Ba3       1.0  0.8050262331962587  0.06195304170250892  0.64675372838974  1.0000
  O   O6        1.0  0.30471852421760565  0.562141180038452  0.26328426599502563  1.0000
  O   O7        1.0  0.30514451861381536  0.561891734600067  0.7278573513031006  1.0000
  O   O8        1.0  0.3053941428661347  0.5633242726325989  0.9994096755981445  1.0000
  O   O9        1.0  0.30468535423278814  0.062473494559526443  0.4205467700958252  1.0000
  O   O10       1.0  0.8053976893424989  0.5631785988807677  0.861099362373352  1.0000
