data_image578
_chemical_formula_structural       BaOBaTiO2
_chemical_formula_sum              "Ba2 O3 Ti1"
_cell_length_a       3.972402698550715
_cell_length_b       4.052375764051208
_cell_length_c       7.384422779083252
_cell_angle_alpha    105.80438266929275
_cell_angle_beta     105.54144026295579
_cell_angle_gamma    90.0531622503519

_space_group_name_H-M_alt    "P 1"
_space_group_IT_number       1

loop_
  _space_group_symop_operation_xyz
  'x, y, z'

loop_
  _atom_site_type_symbol
  _atom_site_label
  _atom_site_symmetry_multiplicity
  _atom_site_fract_x
  _atom_site_fract_y
  _atom_site_fract_z
  _atom_site_occupancy
  Ba  Ba1       1.0  0.3226993978023529  0.8445919156074524  0.036563996225595474  1.0000
  O   O1        1.0  0.8229849338531494  0.34559333324432373  0.03798664361238477  1.0000
  Ba  Ba2       1.0  0.6148830652236938  0.13797222077846527  0.6212237477302551  1.0000
  Ti  Ti1       1.0  0.9692707657814026  0.49143895506858826  0.329425185918808  1.0000
  O   O2        1.0  0.11451753228902817  0.6371093988418579  0.6201696991920471  1.0000
  O   O3        1.0  0.9687371850013733  0.9913319945335388  0.32867908477783203  1.0000
