data_image126
_chemical_formula_structural       OTiBaO
_chemical_formula_sum              "O2 Ti1 Ba1"
_cell_length_a       4.0959516280692085
_cell_length_b       4.099303402391085
_cell_length_c       6.698716640472412
_cell_angle_alpha    72.20457223149674
_cell_angle_beta     72.20005193894022
_cell_angle_gamma    60.032890992141716

_space_group_name_H-M_alt    "P 1"
_space_group_IT_number       1

loop_
  _space_group_symop_operation_xyz
  'x, y, z'

loop_
  _atom_site_type_symbol
  _atom_site_label
  _atom_site_symmetry_multiplicity
  _atom_site_fract_x
  _atom_site_fract_y
  _atom_site_fract_z
  _atom_site_occupancy
  O   O1        1.0  0.5430605411529541  0.4825598299503326  0.6284486651420593  1.0000
  Ti  Ti1       1.0  0.44931355118751526  0.38966816663742065  0.9087548255920409  1.0000
  Ba  Ba1       1.0  0.9492507576942446  0.8896278738975524  0.4088898599147796  1.0000
  O   O2        1.0  0.35575053095817566  0.29677408933639526  0.18970185518264768  1.0000
