data_image354
_chemical_formula_structural       BaO2BaO2TiO
_chemical_formula_sum              "Ba2 O5 Ti1"
_cell_length_a       4.003585718627136
_cell_length_b       4.003180847529814
_cell_length_c       8.436100006103516
_cell_angle_alpha    101.41393178943501
_cell_angle_beta     103.74316963151173
_cell_angle_gamma    90.0336823116131

_space_group_name_H-M_alt    "P 1"
_space_group_IT_number       1

loop_
  _space_group_symop_operation_xyz
  'x, y, z'

loop_
  _atom_site_type_symbol
  _atom_site_label
  _atom_site_symmetry_multiplicity
  _atom_site_fract_x
  _atom_site_fract_y
  _atom_site_fract_z
  _atom_site_occupancy
  Ba  Ba1       1.0  0.7703805565834047  0.3668336272239685  0.2124338895082474  1.0000
  O   O1        1.0  0.1450484246015549  0.27035239338874817  0.962359607219696  1.0000
  O   O2        1.0  0.3537775278091431  0.09234588593244553  0.37859711050987244  1.0000
  Ba  Ba2       1.0  0.5146440267562866  0.1665039211511612  0.701267421245575  1.0000
  O   O3        1.0  0.2714597582817078  0.8521504402160645  0.21555393934249878  1.0000
  O   O4        1.0  0.01795011200010777  0.6701654195785522  0.7090196013450623  1.0000
  Ti  Ti1       1.0  0.1334104984998703  0.765783965587616  0.9381830096244812  1.0000
  O   O5        1.0  0.6428127884864808  0.7710316777229309  0.9590791463851929  1.0000
