data_image585
_chemical_formula_structural       O2BaTiO2BaOTiO
_chemical_formula_sum              "O6 Ba2 Ti2"
_cell_length_a       5.640534332090867
_cell_length_b       5.6421026495118705
_cell_length_c       5.8902130126953125
_cell_angle_alpha    118.55472067639434
_cell_angle_beta     118.55758895548568
_cell_angle_gamma    89.87538544843028

_space_group_name_H-M_alt    "P 1"
_space_group_IT_number       1

loop_
  _space_group_symop_operation_xyz
  'x, y, z'

loop_
  _atom_site_type_symbol
  _atom_site_label
  _atom_site_symmetry_multiplicity
  _atom_site_fract_x
  _atom_site_fract_y
  _atom_site_fract_z
  _atom_site_occupancy
  O   O1        1.0  0.9005171060562134  0.2954652011394501  0.7094915509223938  1.0000
  O   O2        1.0  0.3894875645637512  0.2852027416229248  0.18726475536823278  1.0000
  Ba  Ba1       1.0  0.42052575945854187  0.8166952133178711  0.24987888336181643  1.0000
  Ti  Ti1       1.0  0.1814645379781723  0.07721521705389023  0.7699381113052369  1.0000
  O   O3        1.0  0.4004017114639282  0.7962819337844849  0.7101851105690002  1.0000
  O   O4        1.0  0.8889832496643066  0.7843145132064819  0.1864476948976517  1.0000
  Ba  Ba2       1.0  0.9206092953681946  0.31602057814598083  0.24940565228462222  1.0000
  O   O5        1.0  0.39937108755111694  0.2949272096157074  0.7096169590950012  1.0000
  Ti  Ti2       1.0  0.6810812950134277  0.5768240094184875  0.769393026828766  1.0000
  O   O6        1.0  0.900632381439209  0.7958307862281798  0.7103537917137146  1.0000
