data_image136
_chemical_formula_structural       TiBa2O2TiO4
_chemical_formula_sum              "Ti2 Ba2 O6"
_cell_length_a       4.246313931608662
_cell_length_b       5.62862071412208
_cell_length_c       5.630949020385742
_cell_angle_alpha    90.17990285851515
_cell_angle_beta     90.08033918074896
_cell_angle_gamma    90.0980566977218

_space_group_name_H-M_alt    "P 1"
_space_group_IT_number       1

loop_
  _space_group_symop_operation_xyz
  'x, y, z'

loop_
  _atom_site_type_symbol
  _atom_site_label
  _atom_site_symmetry_multiplicity
  _atom_site_fract_x
  _atom_site_fract_y
  _atom_site_fract_z
  _atom_site_occupancy
  Ti  Ti1       1.0  0.3338039815425873  0.0690317153930664  0.6743481755256653  1.0000
  Ba  Ba1       1.0  0.8530440330505371  0.0698627382516861  0.17465147376060486  1.0000
  Ba  Ba2       1.0  0.8521490097045898  0.5693516731262207  0.6743241548538208  1.0000
  O   O1        1.0  0.38819101452827454  0.32014185190200806  0.9241489171981812  1.0000
  O   O2        1.0  0.9108101725578308  0.06952166557312012  0.6742974519729614  1.0000
  Ti  Ti2       1.0  0.33368542790412903  0.5692570209503174  0.1738894134759903  1.0000
  O   O3        1.0  0.38842064142227173  0.8192769885063171  0.4248979091644287  1.0000
  O   O4        1.0  0.38754600286483765  0.3197731077671051  0.42390793561935425  1.0000
  O   O5        1.0  0.387515664100647  0.8193404078483582  0.925058901309967  1.0000
  O   O6        1.0  0.9101594686508179  0.5694925785064697  0.17442552745342255  1.0000
