data_image305
_chemical_formula_structural       TiBaTiBaO2Ti2O8
_chemical_formula_sum              "Ti4 Ba2 O10"
_cell_length_a       3.8914663778344707
_cell_length_b       3.8507162932551307
_cell_length_c       15.51861572265625
_cell_angle_alpha    82.94785273906564
_cell_angle_beta     89.87475732442788
_cell_angle_gamma    89.97477178533526

_space_group_name_H-M_alt    "P 1"
_space_group_IT_number       1

loop_
  _space_group_symop_operation_xyz
  'x, y, z'

loop_
  _atom_site_type_symbol
  _atom_site_label
  _atom_site_symmetry_multiplicity
  _atom_site_fract_x
  _atom_site_fract_y
  _atom_site_fract_z
  _atom_site_occupancy
  Ti  Ti1       1.0  0.5849583745002747  0.3147123456001282  0.7403674125671387  1.0000
  Ba  Ba1       1.0  0.06118212267756463  0.8944033980369569  0.5808136463165283  1.0000
  Ti  Ti2       1.0  0.5576894879341125  0.4740663766860962  0.4221040606498718  1.0000
  Ba  Ba2       1.0  0.061272058635950095  0.5942267179489136  0.1947939544916153  1.0000
  O   O1        1.0  0.5572825074195862  0.9568189382553101  0.4585347175598144  1.0000
  O   O2        1.0  0.5575006604194641  0.5308976769447328  0.31113874912261963  1.0000
  Ti  Ti3       1.0  0.34543490409851074  0.7440645098686219  0.8853418827056884  1.0000
  Ti  Ti4       1.0  0.5821950435638428  0.17408066987991336  0.02953921630978584  1.0000
  O   O3        1.0  0.5222898721694946  0.8008499741554261  0.7690481543540955  1.0000
  O   O4        1.0  0.5541236996650696  0.3713732957839966  0.6257601976394653  1.0000
  O   O5        1.0  0.5256154537200928  0.688906192779541  0.9985365867614745  1.0000
  O   O6        1.0  0.038317520171403885  0.17964322865009308  0.017818182706832886  1.0000
  O   O7        1.0  0.03534076362848282  0.3079899251461029  0.7529979348182678  1.0000
  O   O8        1.0  0.5508713126182556  0.11548202484846115  0.14588119089603424  1.0000
  O   O9        1.0  0.4809782505035401  0.24397316575050357  0.8840989470481871  1.0000
  O   O10       1.0  0.05788399279117585  0.45701608061790466  0.45627552270889277  1.0000
