data_image334
_chemical_formula_structural       Ba2O2TiO2BaOTiOTiO4TiO
_chemical_formula_sum              "Ba3 O11 Ti4"
_cell_length_a       4.123521712565605
_cell_length_b       5.713732964102955
_cell_length_c       11.25031566619873
_cell_angle_alpha    89.95027190125886
_cell_angle_beta     89.87132857555953
_cell_angle_gamma    90.01446201435485

_space_group_name_H-M_alt    "P 1"
_space_group_IT_number       1

loop_
  _space_group_symop_operation_xyz
  'x, y, z'

loop_
  _atom_site_type_symbol
  _atom_site_label
  _atom_site_symmetry_multiplicity
  _atom_site_fract_x
  _atom_site_fract_y
  _atom_site_fract_z
  _atom_site_occupancy
  Ba  Ba1       1.0  0.1092207282781601  0.29167988896369934  0.8733129501342773  1.0000
  Ba  Ba2       1.0  0.11156591027975082  0.7915287613868713  0.1499975174665451  1.0000
  O   O1        1.0  0.07642936706542969  0.7910559773445128  0.907884955406189  1.0000
  O   O2        1.0  0.5900339484214783  0.5712670087814331  0.7711828351020813  1.0000
  Ti  Ti1       1.0  0.6345076560974121  0.7914518117904663  0.9066073894500732  1.0000
  O   O3        1.0  0.582396388053894  0.047744736075401306  0.024138083681464195  1.0000
  O   O4        1.0  0.5813056826591492  0.5349457859992981  0.2754952311515808  1.0000
  Ba  Ba3       1.0  0.10725722461938858  0.29099324345588684  0.42690953612327576  1.0000
  O   O5        1.0  0.06874941289424896  0.2915569245815277  0.14960196614265442  1.0000
  Ti  Ti2       1.0  0.5644725561141968  0.7914351224899292  0.6504102349281311  1.0000
  O   O6        1.0  0.5853694677352905  0.5703908205032349  0.5287237763404846  1.0000
  Ti  Ti3       1.0  0.6318473815917969  0.7911508083343505  0.3936973810195923  1.0000
  O   O7        1.0  0.5828068852424622  0.5352188944816589  0.02468348853290081  1.0000
  O   O8        1.0  0.5857140421867371  0.011347120627760885  0.5285804867744446  1.0000
  O   O9        1.0  0.5889185070991516  0.012024077586829662  0.771074652671814  1.0000
  O   O10       1.0  0.5809768438339233  0.047813985496759415  0.2755337357521057  1.0000
  Ti  Ti4       1.0  0.6295297741889954  0.2920190393924713  0.14995689690113068  1.0000
  O   O11       1.0  0.07367613166570663  0.7913104891777039  0.3918216824531555  1.0000
