data_image306
_chemical_formula_structural       Ba2O3Ti
_chemical_formula_sum              "Ba2 O3 Ti1"
_cell_length_a       3.9756459289794686
_cell_length_b       3.979251385765778
_cell_length_c       9.062653541564941
_cell_angle_alpha    102.78978485646977
_cell_angle_beta     102.71728193568893
_cell_angle_gamma    89.94732128585491

_space_group_name_H-M_alt    "P 1"
_space_group_IT_number       1

loop_
  _space_group_symop_operation_xyz
  'x, y, z'

loop_
  _atom_site_type_symbol
  _atom_site_label
  _atom_site_symmetry_multiplicity
  _atom_site_fract_x
  _atom_site_fract_y
  _atom_site_fract_z
  _atom_site_occupancy
  Ba  Ba1       1.0  0.8756394982337952  0.19072797894477841  0.928747832775116  1.0000
  Ba  Ba2       1.0  0.11601494252681732  0.4318435788154602  0.40889859199523926  1.0000
  O   O1        1.0  0.9825250506401062  0.7984042167663573  0.14170002937316892  1.0000
  O   O2        1.0  0.6033018827438354  0.9188771843910216  0.3832923471927643  1.0000
  O   O3        1.0  0.4834320545196533  0.299023300409317  0.14330950379371643  1.0000
  Ti  Ti1       1.0  0.4979578852653503  0.8136432766914367  0.17318876087665558  1.0000
