data_image299
_chemical_formula_structural       BaOTiO3
_chemical_formula_sum              "Ba1 O4 Ti1"
_cell_length_a       3.9559469718975233
_cell_length_b       4.186282814770747
_cell_length_c       5.158773422241211
_cell_angle_alpha    96.01643613949508
_cell_angle_beta     90.03562877004191
_cell_angle_gamma    89.95756654033299

_space_group_name_H-M_alt    "P 1"
_space_group_IT_number       1

loop_
  _space_group_symop_operation_xyz
  'x, y, z'

loop_
  _atom_site_type_symbol
  _atom_site_label
  _atom_site_symmetry_multiplicity
  _atom_site_fract_x
  _atom_site_fract_y
  _atom_site_fract_z
  _atom_site_occupancy
  Ba  Ba1       1.0  0.9861180782318115  0.7395907640457153  0.4944506883621216  1.0000
  O   O1        1.0  0.985967218875885  0.15839622914791107  0.11325125396251678  1.0000
  Ti  Ti1       1.0  0.4867687225341797  0.21788810193538666  0.0855378657579422  1.0000
  O   O2        1.0  0.48606133460998535  0.08479902893304825  0.7171976566314697  1.0000
  O   O3        1.0  0.4860505759716034  0.6507929563522339  0.11622821539640427  1.0000
  O   O4        1.0  0.487900048494339  0.27580055594444275  0.48934614658355713  1.0000
