data_image506
_chemical_formula_structural       TiOBa
_chemical_formula_sum              "Ti1 O1 Ba1"
_cell_length_a       3.3836549868987285
_cell_length_b       3.3844439229660246
_cell_length_c       6.034613609313965
_cell_angle_alpha    90.03523261924295
_cell_angle_beta     90.0172897135332
_cell_angle_gamma    120.05493082751597

_space_group_name_H-M_alt    "P 1"
_space_group_IT_number       1

loop_
  _space_group_symop_operation_xyz
  'x, y, z'

loop_
  _atom_site_type_symbol
  _atom_site_label
  _atom_site_symmetry_multiplicity
  _atom_site_fract_x
  _atom_site_fract_y
  _atom_site_fract_z
  _atom_site_occupancy
  Ti  Ti1       1.0  0.051570441573858254  0.2878425717353821  0.5369441509246826  1.0000
  O   O1        1.0  0.384538471698761  0.954335629940033  0.42194077372550964  1.0000
  Ba  Ba1       1.0  0.7175912857055664  0.6215176582336426  0.07286729663610458  1.0000
