data_image327
_chemical_formula_structural       TiBaOTiO4BaO
_chemical_formula_sum              "Ti2 Ba2 O6"
_cell_length_a       5.647139549021944
_cell_length_b       5.665997224435789
_cell_length_c       5.647970676422119
_cell_angle_alpha    61.0118038171973
_cell_angle_beta     61.19790979881156
_cell_angle_gamma    60.915717673248736

_space_group_name_H-M_alt    "P 1"
_space_group_IT_number       1

loop_
  _space_group_symop_operation_xyz
  'x, y, z'

loop_
  _atom_site_type_symbol
  _atom_site_label
  _atom_site_symmetry_multiplicity
  _atom_site_fract_x
  _atom_site_fract_y
  _atom_site_fract_z
  _atom_site_occupancy
  Ti  Ti1       1.0  0.6266341805458069  0.28402382135391235  0.8707774877548217  1.0000
  Ba  Ba1       1.0  0.37723684310913086  0.03508294001221657  0.6199735403060913  1.0000
  O   O1        1.0  0.3714965283870697  0.5409032702445984  0.11797578632831572  1.0000
  Ti  Ti2       1.0  0.1268157809972763  0.7843552827835083  0.37024432420730585  1.0000
  O   O2        1.0  0.8807505369186401  0.029851539060473442  0.6260476112365723  1.0000
  O   O3        1.0  0.37692975997924805  0.031714778393507004  0.1261962354183197  1.0000
  O   O4        1.0  0.37949877977371216  0.5275460481643677  0.6221284866333008  1.0000
  O   O5        1.0  0.8726910352706909  0.04222751781344414  0.12146688997745513  1.0000
  Ba  Ba2       1.0  0.8760591149330139  0.5348572731018066  0.12147250026464461  1.0000
  O   O6        1.0  0.8752497434616089  0.5391667485237122  0.6162499189376831  1.0000
