data_image263
_chemical_formula_structural       BaTiO2BaTiO4
_chemical_formula_sum              "Ba2 Ti2 O6"
_cell_length_a       4.2802992031890525
_cell_length_b       5.661328886363848
_cell_length_c       5.661346435546875
_cell_angle_alpha    89.90832770303781
_cell_angle_beta     89.91870959198566
_cell_angle_gamma    89.90364902104153

_space_group_name_H-M_alt    "P 1"
_space_group_IT_number       1

loop_
  _space_group_symop_operation_xyz
  'x, y, z'

loop_
  _atom_site_type_symbol
  _atom_site_label
  _atom_site_symmetry_multiplicity
  _atom_site_fract_x
  _atom_site_fract_y
  _atom_site_fract_z
  _atom_site_occupancy
  Ba  Ba1       1.0  0.004645109176635742  0.1385187953710556  0.3798978328704834  1.0000
  Ti  Ti1       1.0  0.5233740210533142  0.13834881782531738  0.8799793124198914  1.0000
  O   O1        1.0  0.9432483911514282  0.6380471587181091  0.37974071502685547  1.0000
  O   O2        1.0  0.4670913219451905  0.8879306316375732  0.6300432085990906  1.0000
  Ba  Ba2       1.0  0.005302586127072573  0.6384740471839905  0.8804918527603149  1.0000
  Ti  Ti2       1.0  0.5247845649719238  0.6379792094230652  0.3802003562450409  1.0000
  O   O3        1.0  0.4672962725162506  0.8880300521850586  0.12957066297531128  1.0000
  O   O4        1.0  0.9439352750778198  0.13800640404224396  0.8796179890632629  1.0000
  O   O5        1.0  0.4674279987812042  0.38802003860473633  0.629858136177063  1.0000
  O   O6        1.0  0.4678744077682495  0.3879741430282593  0.12938863039016724  1.0000
