data_image330
_chemical_formula_structural       Ba2TiBaO4
_chemical_formula_sum              "Ba3 Ti1 O4"
_cell_length_a       5.601070887359613
_cell_length_b       5.608289631339152
_cell_length_c       6.498044013977051
_cell_angle_alpha    115.61242579523592
_cell_angle_beta     115.61824483713114
_cell_angle_gamma    89.70124284350383

_space_group_name_H-M_alt    "P 1"
_space_group_IT_number       1

loop_
  _space_group_symop_operation_xyz
  'x, y, z'

loop_
  _atom_site_type_symbol
  _atom_site_label
  _atom_site_symmetry_multiplicity
  _atom_site_fract_x
  _atom_site_fract_y
  _atom_site_fract_z
  _atom_site_occupancy
  Ba  Ba1       1.0  0.42326006293296814  0.9318259358406067  0.4134629666805268  1.0000
  Ba  Ba2       1.0  0.17441633343696594  0.17966297268867493  0.9134963750839233  1.0000
  Ti  Ti1       1.0  0.8636254072189331  0.49087071418762207  0.4134659171104431  1.0000
  Ba  Ba3       1.0  0.6740459203720093  0.6812419295310974  0.9138022661209106  1.0000
  O   O1        1.0  0.12021058797836304  0.60664302110672  0.7852080464363098  1.0000
  O   O2        1.0  0.5329415798187256  0.43097594380378723  0.41431891918182373  1.0000
  O   O3        1.0  0.9241092205047607  0.8217783570289612  0.4128513038158417  1.0000
  O   O4        1.0  0.7498270869255066  0.23530898988246918  0.042671527713537216  1.0000
