data_image301
_chemical_formula_structural       O2Ba2O2TiO2TiO4Ti
_chemical_formula_sum              "O10 Ba2 Ti3"
_cell_length_a       4.018150372018466
_cell_length_b       4.039652495403219
_cell_length_c       11.957090377807617
_cell_angle_alpha    90.79393000104278
_cell_angle_beta     90.6396292120845
_cell_angle_gamma    89.81900933037707

_space_group_name_H-M_alt    "P 1"
_space_group_IT_number       1

loop_
  _space_group_symop_operation_xyz
  'x, y, z'

loop_
  _atom_site_type_symbol
  _atom_site_label
  _atom_site_symmetry_multiplicity
  _atom_site_fract_x
  _atom_site_fract_y
  _atom_site_fract_z
  _atom_site_occupancy
  O   O1        1.0  0.314489483833313  0.6158503293991089  0.642447292804718  1.0000
  O   O2        1.0  0.31258538365364075  0.6040193438529968  0.9789080023765563  1.0000
  Ba  Ba1       1.0  0.8119911551475525  0.6050891876220703  0.8170632719993591  1.0000
  Ba  Ba2       1.0  0.7951829433441162  0.5857782959938049  0.469104528427124  1.0000
  O   O3        1.0  0.3130795955657959  0.1034548282623291  0.4757230281829834  1.0000
  O   O4        1.0  0.3036482036113739  0.6013607978820801  0.30580514669418335  1.0000
  Ti  Ti1       1.0  0.33986273407936096  0.1340494453907013  0.9863710403442383  1.0000
  O   O5        1.0  0.8118748068809509  0.10609176009893417  0.979059636592865  1.0000
  O   O6        1.0  0.8100640773773193  0.6005480289459229  0.1423238217830658  1.0000
  Ti  Ti2       1.0  0.278563529253006  0.06423108279705048  0.3004453182220459  1.0000
  O   O7        1.0  0.3093145191669464  0.10032346099615097  0.14260630309581757  1.0000
  O   O8        1.0  0.8072001338005066  0.09405447542667389  0.3073255717754364  1.0000
  O   O9        1.0  0.3164973556995392  0.10881327092647552  0.8083215951919556  1.0000
  O   O10       1.0  0.8235388994216919  0.1065693274140358  0.6424882411956787  1.0000
  Ti  Ti3       1.0  0.2843931019306183  0.07438941299915314  0.6439347863197327  1.0000
