data_image64
_chemical_formula_structural       O2BaTiBaO2Ba2O3TiO
_chemical_formula_sum              "O8 Ba4 Ti2"
_cell_length_a       6.018679337962166
_cell_length_b       6.139921308085255
_cell_length_c       8.097078323364258
_cell_angle_alpha    89.98868488159393
_cell_angle_beta     89.98537906864168
_cell_angle_gamma    116.94446452305455

_space_group_name_H-M_alt    "P 1"
_space_group_IT_number       1

loop_
  _space_group_symop_operation_xyz
  'x, y, z'

loop_
  _atom_site_type_symbol
  _atom_site_label
  _atom_site_symmetry_multiplicity
  _atom_site_fract_x
  _atom_site_fract_y
  _atom_site_fract_z
  _atom_site_occupancy
  O   O1        1.0  0.8411906361579895  0.8454788327217102  0.06981601566076279  1.0000
  O   O2        1.0  0.03282292559742931  0.4503954648971558  0.0692693367600441  1.0000
  Ba  Ba1       1.0  0.40425133705139166  0.888348162174225  0.0691443607211113  1.0000
  Ti  Ti1       1.0  0.7569020390510559  0.5133690237998962  0.06979017704725266  1.0000
  Ba  Ba2       1.0  0.06669361889362335  0.1851901113986969  0.31910255551338196  1.0000
  O   O3        1.0  0.7047973275184631  0.9974023699760438  0.5691227316856384  1.0000
  O   O4        1.0  0.5706929564476013  0.3546283841133118  0.8906000256538391  1.0000
  Ba  Ba3       1.0  0.740070641040802  0.5098675489425659  0.5697012543678284  1.0000
  Ba  Ba4       1.0  0.06633660197257997  0.18463669717311862  0.8195645213127136  1.0000
  O   O5        1.0  0.19814868271350866  0.8311901092529298  0.7503172755241394  1.0000
  O   O6        1.0  0.5719661712646484  0.35356733202934265  0.24896900355815887  1.0000
  O   O7        1.0  0.1979421079158783  0.831529438495636  0.3881879150867462  1.0000
  Ti  Ti2       1.0  0.36043819785118103  0.8032650351524353  0.5689190030097961  1.0000
  O   O8        1.0  0.2930874526500702  0.47790431976318365  0.569851815700531  1.0000
