data_image275
_chemical_formula_structural       Ba3O2Ti2O2BaO2
_chemical_formula_sum              "Ba4 O6 Ti2"
_cell_length_a       4.047177832617558
_cell_length_b       4.0444064212268325
_cell_length_c       14.481186866760254
_cell_angle_alpha    90.00341759898566
_cell_angle_beta     90.00815775056215
_cell_angle_gamma    90.05518360111995

_space_group_name_H-M_alt    "P 1"
_space_group_IT_number       1

loop_
  _space_group_symop_operation_xyz
  'x, y, z'

loop_
  _atom_site_type_symbol
  _atom_site_label
  _atom_site_symmetry_multiplicity
  _atom_site_fract_x
  _atom_site_fract_y
  _atom_site_fract_z
  _atom_site_occupancy
  Ba  Ba1       1.0  0.7296059131622314  0.911101758480072  0.2970699071884155  1.0000
  Ba  Ba2       1.0  0.7288365960121155  0.910427153110504  0.5625234246253967  1.0000
  Ba  Ba3       1.0  0.7291303277015686  0.9104059338569641  0.8383002281188965  1.0000
  O   O1        1.0  0.22915662825107574  0.41091474890708923  0.5660215616226196  1.0000
  O   O2        1.0  0.7293429374694824  0.41084757447242737  0.42467164993286133  1.0000
  Ti  Ti1       1.0  0.22934745252132416  0.41096061468124384  0.4222886562347412  1.0000
  Ti  Ti2       1.0  0.22934813797473907  0.41078388690948486  0.6953338384628296  1.0000
  O   O3        1.0  0.22932147979736328  0.411303699016571  0.2813960015773773  1.0000
  O   O4        1.0  0.7292453050613403  0.4101931154727935  0.7114080786705017  1.0000
  Ba  Ba4       1.0  0.22938664257526398  0.41153258085250854  0.08738898485898972  1.0000
  O   O5        1.0  0.22957120835781097  0.9105843305587769  0.7123876810073853  1.0000
  O   O6        1.0  0.22951021790504456  0.9111903309822083  0.424960196018219  1.0000
