data_image367
_chemical_formula_structural       BaTi2O2BaO4
_chemical_formula_sum              "Ba2 Ti2 O6"
_cell_length_a       5.657021347097155
_cell_length_b       5.654294322595564
_cell_length_c       5.888307571411133
_cell_angle_alpha    118.50354717192872
_cell_angle_beta     118.59509994201052
_cell_angle_gamma    89.89001721017743

_space_group_name_H-M_alt    "P 1"
_space_group_IT_number       1

loop_
  _space_group_symop_operation_xyz
  'x, y, z'

loop_
  _atom_site_type_symbol
  _atom_site_label
  _atom_site_symmetry_multiplicity
  _atom_site_fract_x
  _atom_site_fract_y
  _atom_site_fract_z
  _atom_site_occupancy
  Ba  Ba1       1.0  0.09048428386449814  0.19741657376289368  0.879725992679596  1.0000
  Ti  Ti1       1.0  0.3513416349887848  0.958859920501709  0.4014812409877776  1.0000
  Ti  Ti2       1.0  0.8510627150535583  0.4583301246166229  0.4012112021446228  1.0000
  O   O1        1.0  0.5717482566833496  0.17919506132602692  0.34277597069740295  1.0000
  O   O2        1.0  0.06110401824116711  0.6680791974067689  0.8204652667045593  1.0000
  Ba  Ba2       1.0  0.5907356142997742  0.6984576582908631  0.8807429075241089  1.0000
  O   O3        1.0  0.5723641514778137  0.6800748109817506  0.3434237539768219  1.0000
  O   O4        1.0  0.07321335375308995  0.6805752515792848  0.3437545895576477  1.0000
  O   O5        1.0  0.5618409514427185  0.16902187466621402  0.8213948607444763  1.0000
  O   O6        1.0  0.07291330397129059  0.17968204617500308  0.34315627813339233  1.0000
