data_image491
_chemical_formula_structural       BaO2TiBaO2
_chemical_formula_sum              "Ba2 O4 Ti1"
_cell_length_a       4.0340033215248905
_cell_length_b       4.034385527986709
_cell_length_c       7.3413777351379395
_cell_angle_alpha    105.94474475933924
_cell_angle_beta     105.95383433255756
_cell_angle_gamma    90.025246504072

_space_group_name_H-M_alt    "P 1"
_space_group_IT_number       1

loop_
  _space_group_symop_operation_xyz
  'x, y, z'

loop_
  _atom_site_type_symbol
  _atom_site_label
  _atom_site_symmetry_multiplicity
  _atom_site_fract_x
  _atom_site_fract_y
  _atom_site_fract_z
  _atom_site_occupancy
  Ba  Ba1       1.0  0.9235906600952147  0.721245288848877  0.7857444286346436  1.0000
  O   O1        1.0  0.4281682074069976  0.22562983632087705  0.7945210933685303  1.0000
  O   O2        1.0  0.780343472957611  0.07771796733140944  0.4990276098251343  1.0000
  Ti  Ti1       1.0  0.280175119638443  0.07790959626436234  0.498958945274353  1.0000
  Ba  Ba2       1.0  0.6363686919212341  0.4343979954719543  0.21230758726596832  1.0000
  O   O3        1.0  0.2800854444503784  0.5777955651283264  0.4990236759185791  1.0000
  O   O4        1.0  0.13212935626506805  0.9303966164588927  0.2039455771446228  1.0000
