data_image398
_chemical_formula_structural       Ba3TiOBa3O8BaTiO2
_chemical_formula_sum              "Ba7 Ti2 O11"
_cell_length_a       6.552243854553679
_cell_length_b       6.66327430752314
_cell_length_c       10.342289924621582
_cell_angle_alpha    75.29224745126665
_cell_angle_beta     80.6866433978536
_cell_angle_gamma    77.61566106755963

_space_group_name_H-M_alt    "P 1"
_space_group_IT_number       1

loop_
  _space_group_symop_operation_xyz
  'x, y, z'

loop_
  _atom_site_type_symbol
  _atom_site_label
  _atom_site_symmetry_multiplicity
  _atom_site_fract_x
  _atom_site_fract_y
  _atom_site_fract_z
  _atom_site_occupancy
  Ba  Ba1       1.0  0.16716033220291138  0.3118292987346649  0.15668974816799164  1.0000
  Ba  Ba2       1.0  0.1316675841808319  0.853968620300293  0.956847608089447  1.0000
  Ba  Ba3       1.0  0.6678302884101868  0.9053632020950318  0.7511355876922607  1.0000
  Ti  Ti1       1.0  0.10897387564182281  0.1283254772424698  0.5731597542762756  1.0000
  O   O1        1.0  0.3765789866447449  0.6130807995796204  0.18357686698436734  1.0000
  Ba  Ba4       1.0  0.03421582281589508  0.752331554889679  0.33833032846450806  1.0000
  Ba  Ba5       1.0  0.6354337334632874  0.27147313952445984  0.34724703431129456  1.0000
  Ba  Ba6       1.0  0.22238790988922122  0.5107373595237732  0.7011182308197021  1.0000
  O   O2        1.0  0.007549005560576916  0.32822975516319275  0.431001216173172  1.0000
  O   O3        1.0  0.9553268551826477  0.6041847467422485  0.881364643573761  1.0000
  O   O4        1.0  0.4396977424621582  0.6215914487838745  0.8354139924049377  1.0000
  O   O5        1.0  0.9047568440437317  0.09407790750265123  0.17059671878814697  1.0000
  O   O6        1.0  0.3833392560482025  0.15683956444263458  0.5764959454536438  1.0000
  O   O7        1.0  0.5076354742050171  0.0025985240936279297  0.9899067878723145  1.0000
  O   O8        1.0  0.9800020456314087  0.1742566376924515  0.7397691607475281  1.0000
  O   O9        1.0  0.43805864453315735  0.9793087840080261  0.27621787786483765  1.0000
  Ba  Ba7       1.0  0.7134400606155396  0.3477401733398438  0.9535974264144897  1.0000
  Ti  Ti2       1.0  0.5510514378547668  0.817732334136963  0.1552120894193649  1.0000
  O   O10       1.0  0.03575656935572624  0.8778449892997742  0.5641539692878723  1.0000
  O   O11       1.0  0.805492103099823  0.6417987942695618  0.18497538566589353  1.0000
