data_image307
_chemical_formula_structural       BaOTiO2TiOBaO2
_chemical_formula_sum              "Ba2 O6 Ti2"
_cell_length_a       5.708929833459611
_cell_length_b       5.711139302515168
_cell_length_c       5.712314605712891
_cell_angle_alpha    60.060920651128995
_cell_angle_beta     60.05353102410579
_cell_angle_gamma    60.02555284965829

_space_group_name_H-M_alt    "P 1"
_space_group_IT_number       1

loop_
  _space_group_symop_operation_xyz
  'x, y, z'

loop_
  _atom_site_type_symbol
  _atom_site_label
  _atom_site_symmetry_multiplicity
  _atom_site_fract_x
  _atom_site_fract_y
  _atom_site_fract_z
  _atom_site_occupancy
  Ba  Ba1       1.0  0.970062792301178  0.8006414175033569  0.9147520661354064  1.0000
  O   O1        1.0  0.46978625655174255  0.30072417855262756  0.9147794246673584  1.0000
  Ti  Ti1       1.0  0.7199330925941468  0.5508436560630798  0.6647251844406127  1.0000
  O   O2        1.0  0.9699144959449768  0.3005143105983734  0.9151774048805237  1.0000
  O   O3        1.0  0.9696263074874878  0.3006925880908966  0.4148529767990112  1.0000
  Ti  Ti2       1.0  0.2198670357465744  0.05061550810933113  0.16486594080924988  1.0000
  O   O4        1.0  0.969721257686615  0.8008136749267578  0.4148101210594177  1.0000
  Ba  Ba2       1.0  0.46971970796585083  0.3006514608860016  0.4147975444793701  1.0000
  O   O5        1.0  0.4698847532272339  0.8007790446281433  0.9148468971252441  1.0000
  O   O6        1.0  0.4697074294090271  0.8007091283798218  0.4146093726158143  1.0000
