data_image28
_chemical_formula_structural       BaO3BaTi2O4BaTi2OBaO2
_chemical_formula_sum              "Ba4 O10 Ti4"
_cell_length_a       4.046646174614263
_cell_length_b       4.04511597654985
_cell_length_c       16.719871520996094
_cell_angle_alpha    89.96006638730775
_cell_angle_beta     89.97058487739119
_cell_angle_gamma    89.89666173753572

_space_group_name_H-M_alt    "P 1"
_space_group_IT_number       1

loop_
  _space_group_symop_operation_xyz
  'x, y, z'

loop_
  _atom_site_type_symbol
  _atom_site_label
  _atom_site_symmetry_multiplicity
  _atom_site_fract_x
  _atom_site_fract_y
  _atom_site_fract_z
  _atom_site_occupancy
  Ba  Ba1       1.0  0.587204098701477  0.571111261844635  0.9716498255729675  1.0000
  O   O1        1.0  0.08715692162513733  0.5710414052009581  0.6037271618843079  1.0000
  O   O2        1.0  0.08738384395837784  0.571171760559082  0.10140413045883179  1.0000
  O   O3        1.0  0.08754388242959976  0.07105094939470291  0.24194969236850739  1.0000
  Ba  Ba2       1.0  0.5868725180625916  0.5710998177528381  0.7334471940994263  1.0000
  Ti  Ti1       1.0  0.0865461677312851  0.0704183280467987  0.8532926440238953  1.0000
  Ti  Ti2       1.0  0.08776628226041794  0.07120719552040099  0.09102451801300049  1.0000
  O   O4        1.0  0.08737446367740631  0.0718708485364914  0.7274794578552246  1.0000
  O   O5        1.0  0.08716566115617752  0.07104244828224182  0.9762124419212341  1.0000
  O   O6        1.0  0.5871680378913879  0.0713147446513176  0.8522328734397888  1.0000
  O   O7        1.0  0.08691772073507309  0.07093707472085953  0.46283504366874695  1.0000
  Ba  Ba3       1.0  0.587349534034729  0.5709401369094848  0.49134716391563416  1.0000
  Ti  Ti3       1.0  0.08650802820920944  0.07049548625946045  0.3526720702648163  1.0000
  Ti  Ti4       1.0  0.0878339558839798  0.07146844267845154  0.6141506433486938  1.0000
  O   O8        1.0  0.08735622465610504  0.5714843273162842  0.8522701859474182  1.0000
  Ba  Ba4       1.0  0.5873223543167114  0.5706245303153991  0.21277809143066406  1.0000
  O   O9        1.0  0.5871440768241882  0.0711163431406021  0.6038264036178589  1.0000
  O   O10       1.0  0.5878779888153076  0.07099711149930954  0.10043711215257645  1.0000
