data_image397
_chemical_formula_structural       OTiOBa2OTiBaO4
_chemical_formula_sum              "O7 Ti2 Ba3"
_cell_length_a       5.613050048516461
_cell_length_b       5.609333188521153
_cell_length_c       7.467238903045654
_cell_angle_alpha    90.02709103290937
_cell_angle_beta     112.03747820917732
_cell_angle_gamma    89.98276993760093

_space_group_name_H-M_alt    "P 1"
_space_group_IT_number       1

loop_
  _space_group_symop_operation_xyz
  'x, y, z'

loop_
  _atom_site_type_symbol
  _atom_site_label
  _atom_site_symmetry_multiplicity
  _atom_site_fract_x
  _atom_site_fract_y
  _atom_site_fract_z
  _atom_site_occupancy
  O   O1        1.0  0.20232245326042175  0.44417038559913635  0.7726166248321533  1.0000
  Ti  Ti1       1.0  0.43088576197624207  0.6958947777748108  0.7416515946388245  1.0000
  O   O2        1.0  0.2991916835308075  0.6954833269119263  0.47833165526390076  1.0000
  Ba  Ba1       1.0  0.5861884951591492  0.19590085744857788  0.051165807992219925  1.0000
  Ba  Ba2       1.0  0.29212987422943115  0.19556483626365662  0.4632948637008667  1.0000
  O   O3        1.0  0.7777466773986816  0.19574704766273499  0.4340578615665436  1.0000
  Ti  Ti2       1.0  0.9625744223594666  0.1958301216363907  0.8060209155082703  1.0000
  Ba  Ba3       1.0  0.8109124302864075  0.6956773996353149  0.5003536343574524  1.0000
  O   O4        1.0  0.6904391050338745  0.9474186897277832  0.7726373672485352  1.0000
  O   O5        1.0  0.09174558520317078  0.19513742625713348  0.06388717144727707  1.0000
  O   O6        1.0  0.20219777524471283  0.9472955465316772  0.7720087170600891  1.0000
  O   O7        1.0  0.6902440786361694  0.44364631175994873  0.7722329497337341  1.0000
