data_image388
_chemical_formula_structural       OBaO2BaO4Ti2O
_chemical_formula_sum              "O8 Ba2 Ti2"
_cell_length_a       4.555399265476846
_cell_length_b       6.205852918854749
_cell_length_c       7.392914295196533
_cell_angle_alpha    101.8887121161751
_cell_angle_beta     92.00378204560648
_cell_angle_gamma    108.54097297022865

_space_group_name_H-M_alt    "P 1"
_space_group_IT_number       1

loop_
  _space_group_symop_operation_xyz
  'x, y, z'

loop_
  _atom_site_type_symbol
  _atom_site_label
  _atom_site_symmetry_multiplicity
  _atom_site_fract_x
  _atom_site_fract_y
  _atom_site_fract_z
  _atom_site_occupancy
  O   O1        1.0  0.44839179515838623  0.9586823582649231  0.2558632493019104  1.0000
  Ba  Ba1       1.0  0.7137858867645264  0.4466853737831116  0.33759385347366333  1.0000
  O   O2        1.0  0.30685603618621826  0.9422152638435364  0.9075498580932617  1.0000
  O   O3        1.0  0.9783759713172914  0.9373158216476442  0.4195379614830017  1.0000
  Ba  Ba2       1.0  0.21329611539840698  0.4459831714630127  0.8368130326271057  1.0000
  O   O4        1.0  0.11583642661571508  0.950800657272339  0.7656174302101135  1.0000
  O   O5        1.0  0.6210997104644775  0.2376874685287476  0.6357488036155701  1.0000
  O   O6        1.0  0.09169851988554002  0.23913431167602542  0.1417868584394455  1.0000
  O   O7        1.0  0.33584338426589966  0.6538728475570679  0.5309586524963379  1.0000
  Ti  Ti1       1.0  0.05210395157337189  0.947128176689148  0.16150838136672974  1.0000
  Ti  Ti2       1.0  0.3755092918872834  0.9467290043830873  0.5141969919204712  1.0000
  O   O8        1.0  0.8058430552482605  0.6574126482009888  0.04015957191586496  1.0000
