data_image534
_chemical_formula_structural       Ba3O4Ti2OTiO4
_chemical_formula_sum              "Ba3 O9 Ti3"
_cell_length_a       4.243915579219471
_cell_length_b       5.654806892515326
_cell_length_c       8.934135437011719
_cell_angle_alpha    108.43110365755162
_cell_angle_beta     89.97223778714509
_cell_angle_gamma    90.01216024106131

_space_group_name_H-M_alt    "P 1"
_space_group_IT_number       1

loop_
  _space_group_symop_operation_xyz
  'x, y, z'

loop_
  _atom_site_type_symbol
  _atom_site_label
  _atom_site_symmetry_multiplicity
  _atom_site_fract_x
  _atom_site_fract_y
  _atom_site_fract_z
  _atom_site_occupancy
  Ba  Ba1       1.0  0.7522952556610107  0.7671878337860107  0.6676295399665833  1.0000
  Ba  Ba2       1.0  0.7516037225723267  0.4329314827919007  6.56540505588179e-05  1.0000
  Ba  Ba3       1.0  0.7515326142311096  0.10005233436822891  0.3325640559196472  1.0000
  O   O1        1.0  0.21465498208999634  0.7676340341567994  0.16623383760452273  1.0000
  O   O2        1.0  0.21401828527450562  0.26652997732162476  0.16682085394859314  1.0000
  O   O3        1.0  0.21553878486156464  0.6009988784790039  0.833287239074707  1.0000
  O   O4        1.0  0.6926960349082947  0.9338125586509705  0.9999011754989624  1.0000
  Ti  Ti1       1.0  0.2703198492527008  0.9333362579345703  0.9993669390678406  1.0000
  Ti  Ti2       1.0  0.2699035108089447  0.599857747554779  0.33341601490974426  1.0000
  O   O5        1.0  0.21545685827732086  0.43336790800094604  0.4996645450592041  1.0000
  Ti  Ti3       1.0  0.2708040475845337  0.26643794775009155  0.6663824915885925  1.0000
  O   O6        1.0  0.6934899687767029  0.2667168378829956  0.6660133004188538  1.0000
  O   O7        1.0  0.2172486037015915  0.09935972839593887  0.8329214453697205  1.0000
  O   O8        1.0  0.21565768122673035  0.933902382850647  0.49984604120254517  1.0000
  O   O9        1.0  0.6929761171340942  0.6002138257026672  0.33322152495384216  1.0000
