data_image569
_chemical_formula_structural       Ba2OBa2OTi2OTiO5
_chemical_formula_sum              "Ba4 O8 Ti3"
_cell_length_a       6.013392164012997
_cell_length_b       6.766035184543911
_cell_length_c       7.404057502746582
_cell_angle_alpha    109.4340285880494
_cell_angle_beta     89.29472404450937
_cell_angle_gamma    88.47729372472196

_space_group_name_H-M_alt    "P 1"
_space_group_IT_number       1

loop_
  _space_group_symop_operation_xyz
  'x, y, z'

loop_
  _atom_site_type_symbol
  _atom_site_label
  _atom_site_symmetry_multiplicity
  _atom_site_fract_x
  _atom_site_fract_y
  _atom_site_fract_z
  _atom_site_occupancy
  Ba  Ba1       1.0  0.2247660756111145  0.16418014466762546  0.0018574218265712335  1.0000
  Ba  Ba2       1.0  0.7353745698928833  0.05928695946931839  0.3959335088729858  1.0000
  O   O1        1.0  0.20222868025302887  0.0140468655154109  0.3034632205963135  1.0000
  Ba  Ba3       1.0  0.7229286432266235  0.8140937685966493  0.8192949295043944  1.0000
  Ba  Ba4       1.0  0.21266841888427734  0.4152155816555023  0.5737559199333191  1.0000
  O   O2        1.0  0.84068763256073  0.6706897020339966  0.13850581645965576  1.0000
  Ti  Ti1       1.0  0.24392394721508026  0.8863060474395753  0.5031421184539795  1.0000
  Ti  Ti2       1.0  0.6812947988510132  0.4953345656394959  0.2531382739543915  1.0000
  O   O3        1.0  0.23716740310192105  0.7246636152267457  0.9007897973060607  1.0000
  Ti  Ti3       1.0  0.1643008589744568  0.7180366516113281  0.13772092759609222  1.0000
  O   O4        1.0  0.45763108134269714  0.03149633854627609  0.6638427376747131  1.0000
  O   O5        1.0  0.35881155729293823  0.6006165146827698  0.3008170425891876  1.0000
  O   O6        1.0  0.6822736859321594  0.21741187572479248  0.0996522083878517  1.0000
  O   O7        1.0  0.0010462999343872068  0.013753502629697325  0.6628355383872986  1.0000
  O   O8        1.0  0.7561282515525818  0.4779342412948609  0.4953401088714599  1.0000
