data_image143
_chemical_formula_structural       BaTiBa2O3TiO4
_chemical_formula_sum              "Ba3 Ti2 O7"
_cell_length_a       3.7217159678333833
_cell_length_b       5.65360220879298
_cell_length_c       10.109271049499512
_cell_angle_alpha    106.184537585805
_cell_angle_beta     100.58508108328668
_cell_angle_gamma    89.98201870508623

_space_group_name_H-M_alt    "P 1"
_space_group_IT_number       1

loop_
  _space_group_symop_operation_xyz
  'x, y, z'

loop_
  _atom_site_type_symbol
  _atom_site_label
  _atom_site_symmetry_multiplicity
  _atom_site_fract_x
  _atom_site_fract_y
  _atom_site_fract_z
  _atom_site_occupancy
  Ba  Ba1       1.0  0.6929019689559935  0.6820508241653442  0.649488091468811  1.0000
  Ti  Ti1       1.0  0.9954869151115416  0.5094106197357178  0.2532940208911896  1.0000
  Ba  Ba2       1.0  0.10152892023324965  0.08795703947544098  0.4645489752292632  1.0000
  Ba  Ba3       1.0  0.3967438340187072  0.8812724351882936  0.05707849562168121  1.0000
  O   O1        1.0  0.10093180090188979  0.5872582793235779  0.46446093916893005  1.0000
  O   O2        1.0  0.6937261223793029  0.17826756834983826  0.6495878100395203  1.0000
  O   O3        1.0  0.2873792350292206  0.4393490552902222  0.8376240730285645  1.0000
  Ti  Ti2       1.0  0.7989475727081298  0.3133954107761383  0.8614003658294678  1.0000
  O   O4        1.0  0.8967777490615844  0.5269306898117065  0.05676119402050972  1.0000
  O   O5        1.0  0.814489185810089  0.01903275027871132  0.8923481702804565  1.0000
  O   O6        1.0  0.5069290995597839  0.6600469946861267  0.2758738100528717  1.0000
  O   O7        1.0  0.9797586798667907  0.18552270531654358  0.22197365760803223  1.0000
