data_image514
_chemical_formula_structural       Ba4TiO2TiBa2OTi
_chemical_formula_sum              "Ba6 Ti3 O3"
_cell_length_a       3.9843414892107223
_cell_length_b       11.268367001178499
_cell_length_c       10.174237251281738
_cell_angle_alpha    64.10571659900346
_cell_angle_beta     79.10089279277784
_cell_angle_gamma    80.25734608391383

_space_group_name_H-M_alt    "P 1"
_space_group_IT_number       1

loop_
  _space_group_symop_operation_xyz
  'x, y, z'

loop_
  _atom_site_type_symbol
  _atom_site_label
  _atom_site_symmetry_multiplicity
  _atom_site_fract_x
  _atom_site_fract_y
  _atom_site_fract_z
  _atom_site_occupancy
  Ba  Ba1       1.0  0.07791675627231595  0.22292360663414001  0.9826996922492979  1.0000
  Ba  Ba2       1.0  0.813778519630432  0.49807247519493103  0.2224415242671966  1.0000
  Ba  Ba3       1.0  0.5203921794891357  0.5838620662689209  0.7341502904891968  1.0000
  Ba  Ba4       1.0  0.6231259107589721  0.8115753531455994  0.30028632283210743  1.0000
  Ti  Ti1       1.0  0.7353262901306152  0.09877807646989821  0.7934146523475647  1.0000
  O   O1        1.0  0.2221398949623108  0.6605035662651061  0.24900983273983  1.0000
  O   O2        1.0  0.12027920782566072  0.4143465161323547  0.697064697742462  1.0000
  Ti  Ti2       1.0  0.685677170753479  0.34269717335700983  0.6429803371429443  1.0000
  Ba  Ba5       1.0  0.3664929270744323  0.11153550446033478  0.507249653339386  1.0000
  Ba  Ba6       1.0  0.2902863919734955  0.8278796672821044  0.9489728212356566  1.0000
  O   O3        1.0  0.6690843701362609  0.5358706116676331  0.48175266385078425  1.0000
  Ti  Ti3       1.0  0.17083387076854703  0.5379635691642761  0.4746980965137481  1.0000
