data_image0
_chemical_formula_structural       Ba2OBaTiO2TiO3
_chemical_formula_sum              "Ba3 O6 Ti2"
_cell_length_a       4.034865548389721
_cell_length_b       4.034386002230667
_cell_length_c       11.27872371673584
_cell_angle_alpha    100.23436486881124
_cell_angle_beta     79.76004668648869
_cell_angle_gamma    89.9801196517933

_space_group_name_H-M_alt    "P 1"
_space_group_IT_number       1

loop_
  _space_group_symop_operation_xyz
  'x, y, z'

loop_
  _atom_site_type_symbol
  _atom_site_label
  _atom_site_symmetry_multiplicity
  _atom_site_fract_x
  _atom_site_fract_y
  _atom_site_fract_z
  _atom_site_occupancy
  Ba  Ba1       1.0  0.5011599167093501  0.7550696491698239  0.25218081613766985  1.0000
  Ba  Ba2       1.0  0.6841055875745542  0.5721193478831796  0.885834551067097  1.0000
  O   O1        1.0  0.9096561937673087  0.8467326423447694  0.4353697316131376  1.0000
  Ba  Ba3       1.0  0.3181775019394164  0.9380188733258625  0.6185393584486869  1.0000
  Ti  Ti1       1.0  0.9004265314040791  0.3558104154642741  0.45372391144380925  1.0000
  O   O2        1.0  0.19015469551770703  0.06607473857984607  0.8737342093651341  1.0000
  O   O3        1.0  0.8121477089637398  0.44406685372818633  0.6306161240517346  1.0000
  Ti  Ti2       1.0  0.1018881422957934  0.15435323673037984  0.05063695384957512  1.0000
  O   O4        1.0  0.09268488451932874  0.6634277619592938  0.06895041836142518  1.0000
  O   O5        1.0  0.5927908093525741  0.16359950855563335  0.06899530838292926  1.0000
  O   O6        1.0  0.4095035739397464  0.3466179691644814  0.43541890486732493  1.0000
