data_image0
_chemical_formula_structural       Ba2O2BaTi2O5
_chemical_formula_sum              "Ba3 O7 Ti2"
_cell_length_a       4.070867485241281
_cell_length_b       4.0754422869789115
_cell_length_c       11.059258460998535
_cell_angle_alpha    100.51593925360517
_cell_angle_beta     100.54179869223249
_cell_angle_gamma    90.46442113806907

_space_group_name_H-M_alt    "P 1"
_space_group_IT_number       1

loop_
  _space_group_symop_operation_xyz
  'x, y, z'

loop_
  _atom_site_type_symbol
  _atom_site_label
  _atom_site_symmetry_multiplicity
  _atom_site_fract_x
  _atom_site_fract_y
  _atom_site_fract_z
  _atom_site_occupancy
  Ba  Ba1       1.0  0.804435366328197  0.7998849743407388  0.5640202481187581  1.0000
  Ba  Ba2       1.0  0.6196386018036152  0.6184927598190905  0.19784076958741004  1.0000
  O   O1        1.0  0.22643925286217048  0.6890917621271192  0.38668291897381457  1.0000
  O   O2        1.0  0.9487544965176803  0.917618587449961  0.8253829631566248  1.0000
  Ba  Ba3       1.0  0.4379043702536566  0.4350974036594099  0.831812230148972  1.0000
  Ti  Ti1       1.0  0.011788368134654703  0.03770492854515502  0.008215247018594196  1.0000
  Ti  Ti2       1.0  0.20171343305754694  0.226050249656624  0.3874643028996748  1.0000
  O   O3        1.0  0.7370936012825616  0.200020599257012  0.3865737950397948  1.0000
  O   O4        1.0  0.03716483461870875  0.5015729257009545  0.009009143117655438  1.0000
  O   O5        1.0  0.547955397938984  0.012844722517839573  0.008984299342476802  1.0000
  O   O6        1.0  0.3215222142812868  0.28844735012733275  0.5702064958009173  1.0000
  O   O7        1.0  0.1366140957858932  0.10122645262157447  0.1977360513349137  1.0000
