data_image0
_chemical_formula_structural       OBaTiOTiOBa2O4
_chemical_formula_sum              "O7 Ba3 Ti2"
_cell_length_a       4.083929744466157
_cell_length_b       4.0880772893958115
_cell_length_c       11.103496551513672
_cell_angle_alpha    100.52119157889099
_cell_angle_beta     100.43534280558094
_cell_angle_gamma    89.61684264428737

_space_group_name_H-M_alt    "P 1"
_space_group_IT_number       1

loop_
  _space_group_symop_operation_xyz
  'x, y, z'

loop_
  _atom_site_type_symbol
  _atom_site_label
  _atom_site_symmetry_multiplicity
  _atom_site_fract_x
  _atom_site_fract_y
  _atom_site_fract_z
  _atom_site_occupancy
  O   O1        1.0  0.6006795865155297  0.09307630228768815  0.16548074426593304  1.0000
  Ba  Ba1       1.0  0.38874242951121607  0.3938900530222838  0.7200522010698625  1.0000
  Ti  Ti1       1.0  0.6268936022384198  0.6321456002383584  0.16487057331512497  1.0000
  O   O2        1.0  0.7889484844432686  0.28101923411216284  0.5429195333026721  1.0000
  Ti  Ti2       1.0  0.8160269030531062  0.8212960795579608  0.5437173626674922  1.0000
  O   O3        1.0  0.5066654777233537  0.5110819548767236  0.9826608224902964  1.0000
  Ba  Ba2       1.0  0.024664646451078784  0.029733432687792247  0.9885942803889742  1.0000
  Ba  Ba3       1.0  0.20773775626139881  0.2129671594250258  0.3543103516957777  1.0000
  O   O4        1.0  0.8752747424936648  0.880273545705652  0.7258559146695054  1.0000
  O   O5        1.0  0.08857943760494424  0.6055458685116651  0.16547979770491716  1.0000
  O   O6        1.0  0.6893798220585786  0.6940636578694384  0.3543075732864885  1.0000
  O   O7        1.0  0.27668499396841456  0.7935394199315043  0.542892231848678  1.0000
