data_image0
_chemical_formula_structural       BaOBaO2Ti
_chemical_formula_sum              "Ba2 O3 Ti1"
_cell_length_a       3.969761533049426
_cell_length_b       4.050408923565724
_cell_length_c       7.395569324493407
_cell_angle_alpha    105.84892958721855
_cell_angle_beta     105.55996445953997
_cell_angle_gamma    90.01707094762102

_space_group_name_H-M_alt    "P 1"
_space_group_IT_number       1

loop_
  _space_group_symop_operation_xyz
  'x, y, z'

loop_
  _atom_site_type_symbol
  _atom_site_label
  _atom_site_symmetry_multiplicity
  _atom_site_fract_x
  _atom_site_fract_y
  _atom_site_fract_z
  _atom_site_occupancy
  Ba  Ba1       1.0  0.7827262544010449  0.9737021834762105  0.004589266084194288  1.0000
  O   O1        1.0  0.28948211692890835  0.48064769636959476  0.01816928648502813  1.0000
  Ba  Ba2       1.0  0.08285046515470863  0.2738360765069381  0.6048482847408972  1.0000
  O   O2        1.0  0.5762703238923363  0.7669862970634911  0.5913075326103225  1.0000
  O   O3        1.0  0.43271300581147076  0.12380610180702671  0.3047298081347917  1.0000
  Ti  Ti1       1.0  0.43275827151013563  0.6237676238588542  0.3046799138787348  1.0000
