data_image0
_chemical_formula_structural       TiBaO2TiOBaO2TiO5Ba
_chemical_formula_sum              "Ti3 Ba3 O10"
_cell_length_a       3.8903518068821823
_cell_length_b       3.8842601185692276
_cell_length_c       15.118163108825684
_cell_angle_alpha    90.01741265695189
_cell_angle_beta     90.00763865602508
_cell_angle_gamma    90.02594356229748

_space_group_name_H-M_alt    "P 1"
_space_group_IT_number       1

loop_
  _space_group_symop_operation_xyz
  'x, y, z'

loop_
  _atom_site_type_symbol
  _atom_site_label
  _atom_site_symmetry_multiplicity
  _atom_site_fract_x
  _atom_site_fract_y
  _atom_site_fract_z
  _atom_site_occupancy
  Ti  Ti1       1.0  0.5358471585241916  0.2034495806932491  0.618895773322281  1.0000
  Ba  Ba1       1.0  0.03563751420635461  0.7034838910798925  0.7727250593566679  1.0000
  O   O1        1.0  0.535353665564186  0.7035260800682984  0.9252013617680108  1.0000
  O   O2        1.0  0.03579316581335309  0.2033282886618315  0.6428511131600996  1.0000
  Ti  Ti2       1.0  0.535337704863019  0.20356272388078417  0.22269257760994562  1.0000
  O   O3        1.0  0.03538458482328141  0.20349730274463176  0.9252240609838859  1.0000
  Ba  Ba2       1.0  0.035257018528021475  0.703600175600526  0.06819671311154278  1.0000
  O   O4        1.0  0.5358818447925546  0.20332839767808733  0.5023068777163054  1.0000
  O   O5        1.0  0.5355260467103766  0.20347760119988761  0.7949916267229284  1.0000
  Ti  Ti3       1.0  0.5354153639208595  0.20356017794402342  0.9191215217452474  1.0000
  O   O6        1.0  0.5352636963487517  0.20359591660300735  0.054781353024949395  1.0000
  O   O7        1.0  0.5351953728581864  0.7036096788688226  0.2004452360640829  1.0000
  O   O8        1.0  0.035264595302695614  0.20370730191058262  0.20084240790837157  1.0000
  O   O9        1.0  0.5357685228439221  0.7033941116488976  0.6431304558006445  1.0000
  O   O10       1.0  0.5353714723160531  0.20338061464164078  0.33935303893591684  1.0000
  Ba  Ba3       1.0  0.036501536837072225  0.7043699555027844  0.42052646497089075  1.0000
