data_image0
_chemical_formula_structural       BaOTiO
_chemical_formula_sum              "Ba1 O2 Ti1"
_cell_length_a       3.2574626495588794
_cell_length_b       3.251937760891285
_cell_length_c       6.500223159790038
_cell_angle_alpha    75.5398556508456
_cell_angle_beta     75.54862510238237
_cell_angle_gamma    60.026443416507654

_space_group_name_H-M_alt    "P 1"
_space_group_IT_number       1

loop_
  _space_group_symop_operation_xyz
  'x, y, z'

loop_
  _atom_site_type_symbol
  _atom_site_label
  _atom_site_symmetry_multiplicity
  _atom_site_fract_x
  _atom_site_fract_y
  _atom_site_fract_z
  _atom_site_occupancy
  Ba  Ba1       1.0  0.6060102921162798  0.7062302624543189  0.21060091697198624  1.0000
  O   O1        1.0  0.049192564564342296  0.14862648316359098  0.8823578313178432  1.0000
  Ti  Ti1       1.0  0.4367149794865633  0.5358290112560776  0.7200854786577423  1.0000
  O   O2        1.0  0.8258122699107816  0.9247339468271167  0.5528793295606791  1.0000
