data_image0
_chemical_formula_structural       Ba2TiBaOBa2TiOTiO6
_chemical_formula_sum              "Ba5 Ti3 O8"
_cell_length_a       7.963138702682073
_cell_length_b       7.624110670125781
_cell_length_c       7.58111572265625
_cell_angle_alpha    120.03031644758802
_cell_angle_beta     99.83917692895413
_cell_angle_gamma    108.75488826762671

_space_group_name_H-M_alt    "P 1"
_space_group_IT_number       1

loop_
  _space_group_symop_operation_xyz
  'x, y, z'

loop_
  _atom_site_type_symbol
  _atom_site_label
  _atom_site_symmetry_multiplicity
  _atom_site_fract_x
  _atom_site_fract_y
  _atom_site_fract_z
  _atom_site_occupancy
  Ba  Ba1       1.0  0.39831129177585367  0.4881263330056933  0.5844562268120794  1.0000
  Ba  Ba2       1.0  0.12314378218258008  0.6997021549231724  0.15124406147868955  1.0000
  Ti  Ti1       1.0  0.9092158800217737  0.03664440806809868  0.09516757385112488  1.0000
  Ba  Ba3       1.0  0.31156616345721244  0.23522986120577222  0.00014246779350477254  1.0000
  O   O1        1.0  0.4099410890618279  0.6232333578610464  0.00877250287863152  1.0000
  Ba  Ba4       1.0  0.6682718923901717  0.12383612232177806  0.6981750840662537  1.0000
  Ba  Ba5       1.0  0.8703254681520353  0.5345259498968746  0.48691662573075534  1.0000
  Ti  Ti2       1.0  0.5415630028915416  0.9454338248525356  0.12548974970053692  1.0000
  O   O2        1.0  0.8102047088266905  0.09151830711086258  0.34905084929149605  1.0000
  Ti  Ti3       1.0  0.690260183044746  0.7400894521904203  0.2263265705397503  1.0000
  O   O3        1.0  0.4698730335940976  0.1520620253136936  0.3212628772313022  1.0000
  O   O4        1.0  0.006863173329996641  0.8613798066742868  0.92353031248818  1.0000
  O   O5        1.0  0.6032050408414442  0.6730013690249952  0.41530313560326143  1.0000
  O   O6        1.0  0.09063419974552014  0.34802363459348956  0.23904251087956135  1.0000
  O   O7        1.0  0.7459319520453089  0.4958715479888107  0.08159708697891306  1.0000
  O   O8        1.0  0.6491084540381579  0.9507132364736265  0.9178263997145725  1.0000
