data_image0
_chemical_formula_structural       Ba2TiBaO4
_chemical_formula_sum              "Ba3 Ti1 O4"
_cell_length_a       5.601070887359613
_cell_length_b       5.608289631339152
_cell_length_c       6.49804401397705
_cell_angle_alpha    115.61242579523592
_cell_angle_beta     115.61824483713114
_cell_angle_gamma    89.70124284350383

_space_group_name_H-M_alt    "P 1"
_space_group_IT_number       1

loop_
  _space_group_symop_operation_xyz
  'x, y, z'

loop_
  _atom_site_type_symbol
  _atom_site_label
  _atom_site_symmetry_multiplicity
  _atom_site_fract_x
  _atom_site_fract_y
  _atom_site_fract_z
  _atom_site_occupancy
  Ba  Ba1       1.0  0.4185832546267823  0.9364576165800164  0.4135578387106284  1.0000
  Ba  Ba2       1.0  0.16212723712215005  0.19310027273720776  0.9137092535317064  1.0000
  Ti  Ti1       1.0  0.8788242841942363  0.476495813248208  0.4136863029522354  1.0000
  Ba  Ba3       1.0  0.6621155951080745  0.6927054207624959  0.9134648512385263  1.0000
  O   O1        1.0  0.1131060605360985  0.6401576784748122  0.8121511335328608  1.0000
  O   O2        1.0  0.5506707824427208  0.392535869410735  0.41370862620740595  1.0000
  O   O3        1.0  0.9618818015342263  0.8045466259228603  0.4136146697617142  1.0000
  O   O4        1.0  0.7151271295291158  0.2423085613737687  0.015384594133723953  1.0000
