data_image0
_chemical_formula_structural       BaTiOTi2BaO2TiO7BaO2
_chemical_formula_sum              "Ba3 Ti4 O12"
_cell_length_a       3.9473140764495986
_cell_length_b       3.9479569708949236
_cell_length_c       16.60753059387207
_cell_angle_alpha    90.08380892714322
_cell_angle_beta     90.1019704037259
_cell_angle_gamma    90.23847855219726

_space_group_name_H-M_alt    "P 1"
_space_group_IT_number       1

loop_
  _space_group_symop_operation_xyz
  'x, y, z'

loop_
  _atom_site_type_symbol
  _atom_site_label
  _atom_site_symmetry_multiplicity
  _atom_site_fract_x
  _atom_site_fract_y
  _atom_site_fract_z
  _atom_site_occupancy
  Ba  Ba1       1.0  0.609745083210082  0.41513088118889374  0.039108033379468124  1.0000
  Ti  Ti1       1.0  0.11025652510139294  0.9144786434867167  0.6492624772510507  1.0000
  O   O1        1.0  0.10961277549597738  0.9149517154271372  0.79771021756698  1.0000
  Ti  Ti2       1.0  0.10930394497299677  0.9150086706336897  0.16789690920391617  1.0000
  Ti  Ti3       1.0  0.11012443233253608  0.9151302705487815  0.9113892482162228  1.0000
  Ba  Ba2       1.0  0.6100015689628848  0.41500302079476276  0.784286066092869  1.0000
  O   O2        1.0  0.10964961375705984  0.4150973010251773  0.9149044641669792  1.0000
  O   O3        1.0  0.6103655939630889  0.9153863804845215  0.4114005414147449  1.0000
  Ti  Ti4       1.0  0.10910280511029957  0.9157469252175859  0.431436985036747  1.0000
  O   O4        1.0  0.6092676034404909  0.9147729757941517  0.6677694845803923  1.0000
  O   O5        1.0  0.10973695512590462  0.9151062142780653  0.5400562923220794  1.0000
  O   O6        1.0  0.10985057168068474  0.9153459718448234  0.27867674827771144  1.0000
  O   O7        1.0  0.6097113659747744  0.9152181318646003  0.16023861181075183  1.0000
  O   O8        1.0  0.10943803664341342  0.4149671414407422  0.6678063436080247  1.0000
  O   O9        1.0  0.6097286959498809  0.9151372112033115  0.9149263354697326  1.0000
  O   O10       1.0  0.10973554334256563  0.9151591038378393  0.0353748538645033  1.0000
  Ba  Ba3       1.0  0.6094792094014062  0.41522140397500124  0.2947775051254393  1.0000
  O   O11       1.0  0.11010114716455538  0.41519288238680047  0.4112975348818871  1.0000
  O   O12       1.0  0.10972309420321587  0.4152097008306535  0.16023839177599578  1.0000
