data_image0
_chemical_formula_structural       BaTi2OBa2O6
_chemical_formula_sum              "Ba3 Ti2 O7"
_cell_length_a       3.979025672723491
_cell_length_b       4.01498187055811
_cell_length_c       12.971912384033203
_cell_angle_alpha    89.75455283710038
_cell_angle_beta     90.04110658111424
_cell_angle_gamma    90.26331995649794

_space_group_name_H-M_alt    "P 1"
_space_group_IT_number       1

loop_
  _space_group_symop_operation_xyz
  'x, y, z'

loop_
  _atom_site_type_symbol
  _atom_site_label
  _atom_site_symmetry_multiplicity
  _atom_site_fract_x
  _atom_site_fract_y
  _atom_site_fract_z
  _atom_site_occupancy
  Ba  Ba1       1.0  0.49317974738505205  0.6466665007418587  0.5503836855046529  1.0000
  Ti  Ti1       1.0  0.9751199504384678  0.1748013226100749  0.04196264133924799  1.0000
  Ti  Ti2       1.0  0.9788841912399175  0.16611171462064134  0.33970156987893607  1.0000
  O   O1        1.0  0.0015440670796296185  0.6325708009509561  0.030683277222779592  1.0000
  Ba  Ba2       1.0  0.4865695596725939  0.6581436020992003  0.18902159461431098  1.0000
  Ba  Ba3       1.0  0.9962593473681396  0.14090648152804405  0.7727672383631551  1.0000
  O   O2        1.0  0.5079509187205229  0.1405744628841379  0.028194505637785548  1.0000
  O   O3        1.0  0.5039629123764855  0.13467083310809413  0.3538542634639878  1.0000
  O   O4        1.0  0.4955120690855796  0.14405836028995764  0.6629646994834749  1.0000
  O   O5        1.0  0.9942883577361308  0.6430811843300419  0.6651167333325264  1.0000
  O   O6        1.0  0.9925769632763595  0.1486866396958424  0.19124726981020843  1.0000
  O   O7        1.0  0.9988987888187276  0.6270453101385797  0.3538663129582332  1.0000
