data_image0
_chemical_formula_structural       Ba2OTiOBaTiO
_chemical_formula_sum              "Ba3 O3 Ti2"
_cell_length_a       4.050406473182214
_cell_length_b       8.308036654114293
_cell_length_c       6.538249969482421
_cell_angle_alpha    87.42420174834955
_cell_angle_beta     72.14906987508087
_cell_angle_gamma    76.00682278118026

_space_group_name_H-M_alt    "P 1"
_space_group_IT_number       1

loop_
  _space_group_symop_operation_xyz
  'x, y, z'

loop_
  _atom_site_type_symbol
  _atom_site_label
  _atom_site_symmetry_multiplicity
  _atom_site_fract_x
  _atom_site_fract_y
  _atom_site_fract_z
  _atom_site_occupancy
  Ba  Ba1       1.0  0.9265786519930699  0.37133791954311435  0.13713932298489834  1.0000
  Ba  Ba2       1.0  0.1318694223241134  0.8899910322450267  0.2029266706923409  1.0000
  O   O1        1.0  0.2091033958199504  0.1037576527041634  0.8362561986993134  1.0000
  Ti  Ti1       1.0  0.34807073537198563  0.15557506342998548  0.5083224373107553  1.0000
  O   O2        1.0  0.8492914003844503  0.1576436084655718  0.5038235185209583  1.0000
  Ba  Ba3       1.0  0.5294523272425458  0.6303166916633705  0.6700008286824076  1.0000
  Ti  Ti2       1.0  0.7103291262475311  0.10581763193319532  0.8317590178913984  1.0000
  O   O3        1.0  0.5292107295859998  0.13068226427124574  0.17003425411240788  1.0000
