data_image0
_chemical_formula_structural       TiBaTiBaO2TiO2BaO5Ti
_chemical_formula_sum              "Ti4 Ba3 O9"
_cell_length_a       3.992903280243033
_cell_length_b       3.9926281027437613
_cell_length_c       15.222461700439455
_cell_angle_alpha    97.39422904189048
_cell_angle_beta     97.39334057536405
_cell_angle_gamma    89.9732212518682

_space_group_name_H-M_alt    "P 1"
_space_group_IT_number       1

loop_
  _space_group_symop_operation_xyz
  'x, y, z'

loop_
  _atom_site_type_symbol
  _atom_site_label
  _atom_site_symmetry_multiplicity
  _atom_site_fract_x
  _atom_site_fract_y
  _atom_site_fract_z
  _atom_site_occupancy
  Ti  Ti1       1.0  0.695339715576355  0.6098823595557072  0.17387952882625382  1.0000
  Ba  Ba1       1.0  0.966261910461417  0.8801016045531231  0.42133942757542797  1.0000
  Ti  Ti2       1.0  0.3970212999481589  0.31108321042562787  0.2868159058541343  1.0000
  Ba  Ba2       1.0  0.5753725051705302  0.4891500287335031  0.6476224460821202  1.0000
  O   O1        1.0  0.3087973605943617  0.7008299530756011  0.07602700547737574  1.0000
  O   O2        1.0  0.4262911566761684  0.8140057433553303  0.27691416608529934  1.0000
  Ti  Ti3       1.0  0.2717876580108754  0.1864550659250135  0.06193797367373081  1.0000
  O   O3        1.0  0.1426981253048119  0.556528313193751  0.78210336111346  1.0000
  O   O4        1.0  0.8999137171545409  0.34010957014766646  0.276729657095881  1.0000
  Ba  Ba3       1.0  0.7076667643202414  0.6219808268934464  0.9215164169929073  1.0000
  O   O5        1.0  0.46713134403511264  0.3814014086534427  0.42001714447367344  1.0000
  O   O6        1.0  0.2136513296305539  0.1279330645678727  0.9307064866105442  1.0000
  O   O7        1.0  0.7860464234882981  0.22367636270563782  0.07592312680331052  1.0000
  O   O8        1.0  0.6425008495533931  0.05673242603212469  0.7820912970452544  1.0000
  O   O9        1.0  0.07661217045234188  0.9904677753534922  0.6488293199661997  1.0000
  Ti  Ti4       1.0  0.13778393734000133  0.05172483227105775  0.7776710569517351  1.0000
