data_image0
_chemical_formula_structural       BaO2BaOBaO2Ba2TiBa
_chemical_formula_sum              "Ba6 O5 Ti1"
_cell_length_a       3.8954822029628873
_cell_length_b       5.885554110003623
_cell_length_c       14.754632949829102
_cell_angle_alpha    101.03036148628706
_cell_angle_beta     97.48996083295671
_cell_angle_gamma    90.04159142901419

_space_group_name_H-M_alt    "P 1"
_space_group_IT_number       1

loop_
  _space_group_symop_operation_xyz
  'x, y, z'

loop_
  _atom_site_type_symbol
  _atom_site_label
  _atom_site_symmetry_multiplicity
  _atom_site_fract_x
  _atom_site_fract_y
  _atom_site_fract_z
  _atom_site_occupancy
  Ba  Ba1       1.0  0.42966475434543366  0.4527397090609299  0.7650894728527804  1.0000
  O   O1        1.0  0.9944738070680206  0.4962095020288398  0.896759338835643  1.0000
  O   O2        1.0  0.12520996078700256  0.6357906191159224  0.16079805035612463  1.0000
  Ba  Ba2       1.0  0.5617217046146483  0.5996093711632959  0.03331136915041626  1.0000
  O   O3        1.0  0.23330755504766504  0.5308089567110793  0.37861130402211246  1.0000
  Ba  Ba3       1.0  0.7446070659448254  0.25844124142998354  0.4020548952347723  1.0000
  O   O4        1.0  0.6966946395583685  0.808794191720605  0.30401706817806334  1.0000
  O   O5        1.0  0.56045616771499  0.09126556687338254  0.03163922443473064  1.0000
  Ba  Ba4       1.0  0.31823258052818004  0.8146105854936844  0.5511067520200612  1.0000
  Ba  Ba5       1.0  0.9948899611404719  0.03317687032287308  0.8981202219104111  1.0000
  Ti  Ti1       1.0  0.190999874387626  0.7295353675513814  0.2927057461030357  1.0000
  Ba  Ba6       1.0  0.12228994566501368  0.16684564902353155  0.15720774541820795  1.0000
