data_image0
_chemical_formula_structural       OBaTiOBaO2
_chemical_formula_sum              "O4 Ba2 Ti1"
_cell_length_a       4.030790329517953
_cell_length_b       4.033599235866701
_cell_length_c       7.312193393707275
_cell_angle_alpha    106.11964515388843
_cell_angle_beta     106.12169312888628
_cell_angle_gamma    90.09051612848744

_space_group_name_H-M_alt    "P 1"
_space_group_IT_number       1

loop_
  _space_group_symop_operation_xyz
  'x, y, z'

loop_
  _atom_site_type_symbol
  _atom_site_label
  _atom_site_symmetry_multiplicity
  _atom_site_fract_x
  _atom_site_fract_y
  _atom_site_fract_z
  _atom_site_occupancy
  O   O1        1.0  0.15155204631091593  0.7326018374716448  0.99971252160146  1.0000
  Ba  Ba1       1.0  0.35811361709294487  0.9392329236871846  0.41551946830461245  1.0000
  Ti  Ti1       1.0  0.00271915156826986  0.583845127026031  0.7036819048474242  1.0000
  O   O2        1.0  0.8539873133562724  0.4350900466741835  0.40767613715757306  1.0000
  Ba  Ba2       1.0  0.6474699319205568  0.2285098443417081  0.9919453428339627  1.0000
  O   O3        1.0  0.002852042350171807  0.0838539247586399  0.7036939642057422  1.0000
  O   O4        1.0  0.5028679831910479  0.5838624900961052  0.7036856993328663  1.0000
