data_image0
_chemical_formula_structural       BaTiBaTiOBaO2BaOTiO5TiO
_chemical_formula_sum              "Ba4 Ti4 O10"
_cell_length_a       4.037375550197057
_cell_length_b       4.041580321897525
_cell_length_c       16.681543350219727
_cell_angle_alpha    90.03118231754212
_cell_angle_beta     89.98724371133827
_cell_angle_gamma    90.00401182547229

_space_group_name_H-M_alt    "P 1"
_space_group_IT_number       1

loop_
  _space_group_symop_operation_xyz
  'x, y, z'

loop_
  _atom_site_type_symbol
  _atom_site_label
  _atom_site_symmetry_multiplicity
  _atom_site_fract_x
  _atom_site_fract_y
  _atom_site_fract_z
  _atom_site_occupancy
  Ba  Ba1       1.0  0.3011757174593154  0.3463791495948682  0.7966711100681005  1.0000
  Ti  Ti1       1.0  0.7966269865896579  0.850974061996939  0.164553378142973  1.0000
  Ba  Ba2       1.0  0.29697017117711966  0.3508406232205233  0.03327883427439786  1.0000
  Ti  Ti2       1.0  0.7967178301470713  0.8507431191098475  0.42813936256428675  1.0000
  O   O1        1.0  0.7959807025325419  0.3517674724937515  0.41733698280575604  1.0000
  Ba  Ba3       1.0  0.2964036681980893  0.35101832142128564  0.30352886667534323  1.0000
  O   O2        1.0  0.29717063557246254  0.8505350884645618  0.9184178430101343  1.0000
  O   O3        1.0  0.7892615806375503  0.3653197564355241  0.6675587881897252  1.0000
  Ba  Ba4       1.0  0.29803613717767075  0.3492574785814052  0.5467682072966404  1.0000
  O   O4        1.0  0.7944822550676691  0.8530262485331498  0.5399158648095906  1.0000
  Ti  Ti3       1.0  0.8124864994896852  0.8335701229055341  0.67659828553696  1.0000
  O   O5        1.0  0.2956189786758771  0.8514321276172375  0.4172694754438711  1.0000
  O   O6        1.0  0.7961421013201406  0.8515988086671271  0.7893491907902527  1.0000
  O   O7        1.0  0.28305558102374484  0.8583751443905928  0.6674924962789063  1.0000
  O   O8        1.0  0.7964294528834337  0.850987762304431  0.2764451036995631  1.0000
  O   O9        1.0  0.7969513282965208  0.8508681165916897  0.04681020207928409  1.0000
  Ti  Ti4       1.0  0.7977140434519774  0.8501548800922583  0.9194026493869903  1.0000
  O   O10       1.0  0.797268304092201  0.3506184117756304  0.9184234233972834  1.0000
