data_image0
_chemical_formula_structural       Ba3TiBaTiO3TiO7TiO2
_chemical_formula_sum              "Ba4 Ti4 O12"
_cell_length_a       4.233301639777459
_cell_length_b       8.008840688304497
_cell_length_c       8.022607803344727
_cell_angle_alpha    89.95915797393717
_cell_angle_beta     89.99941510820213
_cell_angle_gamma    89.86156823769845

_space_group_name_H-M_alt    "P 1"
_space_group_IT_number       1

loop_
  _space_group_symop_operation_xyz
  'x, y, z'

loop_
  _atom_site_type_symbol
  _atom_site_label
  _atom_site_symmetry_multiplicity
  _atom_site_fract_x
  _atom_site_fract_y
  _atom_site_fract_z
  _atom_site_occupancy
  Ba  Ba1       1.0  0.3342927091271567  0.15956811814272218  0.6509689443074878  1.0000
  Ba  Ba2       1.0  0.3343628371571981  0.659573506195344  0.6511138890732401  1.0000
  Ba  Ba3       1.0  0.3343071129169779  0.659574129358077  0.15107560833135097  1.0000
  Ti  Ti1       1.0  0.8532377537649226  0.41469924878648917  0.4025518461809114  1.0000
  Ba  Ba4       1.0  0.33432325423374093  0.15954415240167216  0.15090214840294935  1.0000
  Ti  Ti2       1.0  0.8531798601904189  0.41473867220309546  0.9025672842343584  1.0000
  O   O1        1.0  0.8056462883171404  0.15107629374854736  0.9009779128029842  1.0000
  O   O2        1.0  0.8059163337326536  0.40306566088935425  0.15007012048268506  1.0000
  O   O3        1.0  0.28399446087653796  0.4060480593048514  0.9008560901710081  1.0000
  Ti  Ti3       1.0  0.8533068584631291  0.9146860683642737  0.39938834529457506  1.0000
  O   O4        1.0  0.8061688144874394  0.9031861239683103  0.1520742016664674  1.0000
  O   O5        1.0  0.2839509307532249  0.9061644564859289  0.4012075021073574  1.0000
  O   O6        1.0  0.8055119561146304  0.6513076677275116  0.4009971610963868  1.0000
  O   O7        1.0  0.8056280199777937  0.6510872781996303  0.9011063255733213  1.0000
  O   O8        1.0  0.8061765725009499  0.903081880400224  0.652075136677118  1.0000
  O   O9        1.0  0.2840969661574016  0.9060406125009902  0.9012035509455164  1.0000
  O   O10       1.0  0.8055111062082073  0.15128821045511012  0.4010534865695154  1.0000
  Ti  Ti4       1.0  0.8532867332951543  0.9147305293611883  0.8993990232511805  1.0000
  O   O11       1.0  0.8059194000017572  0.4032016702490392  0.650093451069211  1.0000
  O   O12       1.0  0.2838370354911186  0.40613910722306146  0.40084344911409403  1.0000
