data_image0
_chemical_formula_structural       BaOTiO
_chemical_formula_sum              "Ba1 O2 Ti1"
_cell_length_a       3.3068783817558747
_cell_length_b       3.310342379161143
_cell_length_c       6.306016445159911
_cell_angle_alpha    74.82337535404133
_cell_angle_beta     74.79103553889169
_cell_angle_gamma    60.02668646201911

_space_group_name_H-M_alt    "P 1"
_space_group_IT_number       1

loop_
  _space_group_symop_operation_xyz
  'x, y, z'

loop_
  _atom_site_type_symbol
  _atom_site_label
  _atom_site_symmetry_multiplicity
  _atom_site_fract_x
  _atom_site_fract_y
  _atom_site_fract_z
  _atom_site_occupancy
  Ba  Ba1       1.0  0.1840082108619831  0.06465892410201232  0.39421313666707497  1.0000
  O   O1        1.0  0.9620243699608492  0.8425386364958077  0.059606554962788424  1.0000
  Ti  Ti1       1.0  0.6837278693948228  0.5641242159906562  0.8943801521247381  1.0000
  O   O2        1.0  0.40561349609443487  0.2860666002821904  0.7289075419969678  1.0000
