data_image0
_chemical_formula_structural       TiBaTiO3BaO3
_chemical_formula_sum              "Ti2 Ba2 O6"
_cell_length_a       5.627164166026512
_cell_length_b       5.627769582439705
_cell_length_c       5.90253210067749
_cell_angle_alpha    118.38580923276781
_cell_angle_beta     118.38774961967087
_cell_angle_gamma    89.93355308261629

_space_group_name_H-M_alt    "P 1"
_space_group_IT_number       1

loop_
  _space_group_symop_operation_xyz
  'x, y, z'

loop_
  _atom_site_type_symbol
  _atom_site_label
  _atom_site_symmetry_multiplicity
  _atom_site_fract_x
  _atom_site_fract_y
  _atom_site_fract_z
  _atom_site_occupancy
  Ti  Ti1       1.0  0.7779888438490973  0.22218786370069774  0.5353035059632123  1.0000
  Ba  Ba1       1.0  0.5155306375011514  0.4587439178731677  0.018446355100553046  1.0000
  Ti  Ti2       1.0  0.2777953452705321  0.7219562018928212  0.5347373770251906  1.0000
  O   O1        1.0  0.4907217894255657  0.43263877501368025  0.4770828819864276  1.0000
  O   O2        1.0  0.978967266907914  0.42198633725534623  0.9487035508667967  1.0000
  O   O3        1.0  0.4894400537879097  0.9317702566304076  0.47736778584890815  1.0000
  Ba  Ba2       1.0  0.015497733855255668  0.9587651148450599  0.018333520169368286  1.0000
  O   O4        1.0  0.4787774879023844  0.9216503039105058  0.9479343150706393  1.0000
  O   O5        1.0  0.9894001941555961  0.43179893975681  0.47770220414094844  1.0000
  O   O6        1.0  0.9906503250786124  0.9328408261087631  0.4771724912360399  1.0000
