data_image0
_chemical_formula_structural       Ba3OTiO
_chemical_formula_sum              "Ba3 O2 Ti1"
_cell_length_a       4.054994194870737
_cell_length_b       4.060541214404477
_cell_length_c       11.466739654541016
_cell_angle_alpha    90.02950209344945
_cell_angle_beta     90.01197582601523
_cell_angle_gamma    90.01742631649947

_space_group_name_H-M_alt    "P 1"
_space_group_IT_number       1

loop_
  _space_group_symop_operation_xyz
  'x, y, z'

loop_
  _atom_site_type_symbol
  _atom_site_label
  _atom_site_symmetry_multiplicity
  _atom_site_fract_x
  _atom_site_fract_y
  _atom_site_fract_z
  _atom_site_occupancy
  Ba  Ba1       1.0  0.9795205950523916  0.6630067215367722  0.0675240633207167  1.0000
  Ba  Ba2       1.0  0.4797113522327403  0.16335849230976154  0.7526406602288638  1.0000
  Ba  Ba3       1.0  0.9796938493887911  0.663450425853317  0.43760276513301394  1.0000
  O   O1        1.0  0.9796004720802713  0.1633224002236116  0.2526660539384124  1.0000
  Ti  Ti1       1.0  0.47965481126694526  0.16319770316332724  0.25281537991285163  1.0000
  O   O2        1.0  0.47969272887631903  0.66317852705809  0.25266695409035866  1.0000
