data_image0
_chemical_formula_structural       BaOTiO2TiOBaO2
_chemical_formula_sum              "Ba2 O6 Ti2"
_cell_length_a       5.708929833459611
_cell_length_b       5.711139302515169
_cell_length_c       5.712314605712891
_cell_angle_alpha    60.060920651128995
_cell_angle_beta     60.05353102410579
_cell_angle_gamma    60.02555284965829

_space_group_name_H-M_alt    "P 1"
_space_group_IT_number       1

loop_
  _space_group_symop_operation_xyz
  'x, y, z'

loop_
  _atom_site_type_symbol
  _atom_site_label
  _atom_site_symmetry_multiplicity
  _atom_site_fract_x
  _atom_site_fract_y
  _atom_site_fract_z
  _atom_site_occupancy
  Ba  Ba1       1.0  0.9700126463371657  0.8006553545625066  0.9147657781299352  1.0000
  O   O1        1.0  0.46980615777522233  0.3007529436889075  0.9147825493052838  1.0000
  Ti  Ti1       1.0  0.7199186951756612  0.5507668870530887  0.6647532215546011  1.0000
  O   O2        1.0  0.9698474094349224  0.30060108764009497  0.9150489563699993  1.0000
  O   O3        1.0  0.9696402553893626  0.3007263067716397  0.41490173559448756  1.0000
  Ti  Ti2       1.0  0.2198950587137204  0.05068489166941142  0.16480424136390012  1.0000
  O   O4        1.0  0.9696913892972273  0.8007237349105082  0.41486731605470645  1.0000
  Ba  Ba2       1.0  0.4697541280831787  0.30066295378329994  0.4148001399642633  1.0000
  O   O5        1.0  0.46990386607383716  0.8007296916715438  0.9147978989516095  1.0000
  O   O6        1.0  0.46975352488675803  0.8006811178324305  0.414695092796243  1.0000
