data_image0
_chemical_formula_structural       OBaTi2O7Ti
_chemical_formula_sum              "O8 Ba1 Ti3"
_cell_length_a       3.9064283196227034
_cell_length_b       6.685415916785702
_cell_length_c       6.733102798461914
_cell_angle_alpha    109.33238062735724
_cell_angle_beta     106.6730139196343
_cell_angle_gamma    90.01700277586072

_space_group_name_H-M_alt    "P 1"
_space_group_IT_number       1

loop_
  _space_group_symop_operation_xyz
  'x, y, z'

loop_
  _atom_site_type_symbol
  _atom_site_label
  _atom_site_symmetry_multiplicity
  _atom_site_fract_x
  _atom_site_fract_y
  _atom_site_fract_z
  _atom_site_occupancy
  O   O1        1.0  0.5515027126519618  0.832638024005188  0.6011121421221195  1.0000
  Ba  Ba1       1.0  0.7594824488620765  0.12196598750479108  0.016624384849215846  1.0000
  Ti  Ti1       1.0  0.5012700520165604  0.5297809670108997  0.498904447171375  1.0000
  Ti  Ti2       1.0  0.1829480246678975  0.5172190244109937  0.8638019884799115  1.0000
  O   O2        1.0  0.3588866689599228  0.5564716303469228  0.21449764183078213  1.0000
  O   O3        1.0  0.26320432224950924  0.8375932086095962  0.02447619282849593  1.0000
  O   O4        1.0  0.16402207484014572  0.24429716997566142  0.8244467738105907  1.0000
  O   O5        1.0  0.9195160025848733  0.9168488206512658  0.337730398609625  1.0000
  O   O6        1.0  0.6611879855053264  0.5350197943153259  0.8200399008359891  1.0000
  O   O7        1.0  0.024810755393775055  0.510949108417679  0.5461453497785869  1.0000
  O   O8        1.0  0.4412238888079224  0.20063773898729667  0.3791861607627426  1.0000
  Ti  Ti3       1.0  0.41933761804779696  0.9017989299590058  0.3383593154521098  1.0000
