data_image0
_chemical_formula_structural       O2Ba2OTiBaTiO2BaO4
_chemical_formula_sum              "O9 Ba4 Ti2"
_cell_length_a       4.384357600171451
_cell_length_b       7.1384607065905055
_cell_length_c       9.107535362243652
_cell_angle_alpha    82.02641908009856
_cell_angle_beta     76.98760510254714
_cell_angle_gamma    72.50124077867846

_space_group_name_H-M_alt    "P 1"
_space_group_IT_number       1

loop_
  _space_group_symop_operation_xyz
  'x, y, z'

loop_
  _atom_site_type_symbol
  _atom_site_label
  _atom_site_symmetry_multiplicity
  _atom_site_fract_x
  _atom_site_fract_y
  _atom_site_fract_z
  _atom_site_occupancy
  O   O1        1.0  0.7876535628141943  0.8464545181873688  0.009642013714332709  1.0000
  O   O2        1.0  0.304533671604325  0.30199035644281297  0.30718691837899453  1.0000
  Ba  Ba1       1.0  0.5957940348937861  0.9286822988426963  0.3215459117741567  1.0000
  Ba  Ba2       1.0  0.7818087301734352  0.46128956353620737  0.1645221515675793  1.0000
  O   O3        1.0  0.46074176771473774  0.6314152875702207  0.8730076337200666  1.0000
  Ti  Ti1       1.0  0.19124643248599552  0.8647708022361543  0.014331730071818285  1.0000
  Ba  Ba3       1.0  0.6206175343100109  0.18668234313353965  0.8233952935453182  1.0000
  Ti  Ti2       1.0  0.016366400300183326  0.30544522638538074  0.4886089519072122  1.0000
  O   O4        1.0  0.2260233384031175  0.7607053900790359  0.20610090035005757  1.0000
  O   O5        1.0  0.6984457333495676  0.5436329806283459  0.47648051247641704  1.0000
  Ba  Ba4       1.0  0.0634013966448252  0.6863368249203228  0.6552967960582377  1.0000
  O   O6        1.0  0.14888962280699986  0.312551786690355  0.6638169863039636  1.0000
  O   O7        1.0  0.08541303259067656  0.13491067464584597  0.01502589277801838  1.0000
  O   O8        1.0  0.9197825308404426  0.0655227297819988  0.5122847073481981  1.0000
  O   O9        1.0  0.420127650593548  0.8312122210580594  0.7896794069306368  1.0000
