data_image0
_chemical_formula_structural       TiBaO2
_chemical_formula_sum              "Ti1 Ba1 O2"
_cell_length_a       3.3208885081395505
_cell_length_b       3.3225510392628124
_cell_length_c       6.298153400421142
_cell_angle_alpha    74.74389443928018
_cell_angle_beta     74.73929009204485
_cell_angle_gamma    59.99908888283707

_space_group_name_H-M_alt    "P 1"
_space_group_IT_number       1

loop_
  _space_group_symop_operation_xyz
  'x, y, z'

loop_
  _atom_site_type_symbol
  _atom_site_label
  _atom_site_symmetry_multiplicity
  _atom_site_fract_x
  _atom_site_fract_y
  _atom_site_fract_z
  _atom_site_occupancy
  Ti  Ti1       1.0  0.17815399253387945  0.2582550349777039  0.883622146479922  1.0000
  Ba  Ba1       1.0  0.6778584684794674  0.7582952104967734  0.38349344476843605  1.0000
  O   O1        1.0  0.4563414937563552  0.5365901536862756  0.048648105631774845  1.0000
  O   O2        1.0  0.8997750287667088  0.9800129504270055  0.718411228837764  1.0000
