data_image0
_chemical_formula_structural       OBaTiO
_chemical_formula_sum              "O2 Ba1 Ti1"
_cell_length_a       4.0550545825523265
_cell_length_b       4.0386453088528755
_cell_length_c       4.051626682281494
_cell_angle_alpha    89.99179944726677
_cell_angle_beta     89.93894744101308
_cell_angle_gamma    89.89676418871048

_space_group_name_H-M_alt    "P 1"
_space_group_IT_number       1

loop_
  _space_group_symop_operation_xyz
  'x, y, z'

loop_
  _atom_site_type_symbol
  _atom_site_label
  _atom_site_symmetry_multiplicity
  _atom_site_fract_x
  _atom_site_fract_y
  _atom_site_fract_z
  _atom_site_occupancy
  O   O1        1.0  0.7018040233128019  0.32541401587676616  0.7237759998642866  1.0000
  Ba  Ba1       1.0  0.2016121555773678  0.8253935070812707  0.7237477902499385  1.0000
  Ti  Ti1       1.0  0.7013777433961357  0.32564655751943744  0.22379883830360187  1.0000
  O   O2        1.0  0.7016854567080244  0.8251633934584308  0.22371897044259575  1.0000
