data_image0
_chemical_formula_structural       BaTiO2
_chemical_formula_sum              "Ba1 Ti1 O2"
_cell_length_a       3.073789857967242
_cell_length_b       4.22482435743464
_cell_length_c       5.991168022155761
_cell_angle_alpha    82.76267222507735
_cell_angle_beta     75.32973949159617
_cell_angle_gamma    68.85713066681566

_space_group_name_H-M_alt    "P 1"
_space_group_IT_number       1

loop_
  _space_group_symop_operation_xyz
  'x, y, z'

loop_
  _atom_site_type_symbol
  _atom_site_label
  _atom_site_symmetry_multiplicity
  _atom_site_fract_x
  _atom_site_fract_y
  _atom_site_fract_z
  _atom_site_occupancy
  Ba  Ba1       1.0  0.5553676747679139  0.5368504781550385  0.9125126665859294  1.0000
  Ti  Ti1       1.0  0.5551858125641818  0.037305313963474716  0.4126006500647048  1.0000
  O   O1        1.0  0.9749477423707401  0.978066752055453  0.6344059297674978  1.0000
  O   O2        1.0  0.13527920361925955  0.09666834772976604  0.1905445632562515  1.0000
