data_image0
_chemical_formula_structural       Ba2OTiO3Ti
_chemical_formula_sum              "Ba2 O4 Ti2"
_cell_length_a       5.934266187615211
_cell_length_b       5.919281829476424
_cell_length_c       5.734598636627197
_cell_angle_alpha    121.04711384429275
_cell_angle_beta     121.08712450650494
_cell_angle_gamma    90.04396790641593

_space_group_name_H-M_alt    "P 1"
_space_group_IT_number       1

loop_
  _space_group_symop_operation_xyz
  'x, y, z'

loop_
  _atom_site_type_symbol
  _atom_site_label
  _atom_site_symmetry_multiplicity
  _atom_site_fract_x
  _atom_site_fract_y
  _atom_site_fract_z
  _atom_site_occupancy
  Ba  Ba1       1.0  0.46306384968505804  0.2911313204233627  0.18980603977873226  1.0000
  Ba  Ba2       1.0  0.9631161806167483  0.7911492525188236  0.18985801342652564  1.0000
  O   O1        1.0  0.963063780894882  0.7911479587582314  0.6898460612950437  1.0000
  Ti  Ti1       1.0  0.7488378366988456  0.041047086495824385  0.6897984600686266  1.0000
  O   O2        1.0  0.9630570959791734  0.2911860853022709  0.18982501015318176  1.0000
  O   O3        1.0  0.4630764747190686  0.7911370226312745  0.18979827418567496  1.0000
  O   O4        1.0  0.963159009991869  0.2910870095705482  0.6897946079513545  1.0000
  Ti  Ti2       1.0  0.1772686358572264  0.5412362543902463  0.6898371089530271  1.0000
