data_image0
_chemical_formula_structural       OBaO
_chemical_formula_sum              "O2 Ba1"
_cell_length_a       3.866712699769504
_cell_length_b       3.868222472733242
_cell_length_c       4.444758892059326
_cell_angle_alpha    115.8325080407833
_cell_angle_beta     115.72187291069896
_cell_angle_gamma    89.83975894345862

_space_group_name_H-M_alt    "P 1"
_space_group_IT_number       1

loop_
  _space_group_symop_operation_xyz
  'x, y, z'

loop_
  _atom_site_type_symbol
  _atom_site_label
  _atom_site_symmetry_multiplicity
  _atom_site_fract_x
  _atom_site_fract_y
  _atom_site_fract_z
  _atom_site_occupancy
  O   O1        1.0  0.19120618132309267  0.9055756106402666  0.47749678503578574  1.0000
  Ba  Ba1       1.0  0.5844628992838391  0.29862686599231175  0.2640771704378355  1.0000
  O   O2        1.0  0.9773004973206728  0.6912084484705255  0.04887136102029273  1.0000
