data_image0
_chemical_formula_structural       O2BaTiBa2OTiO4
_chemical_formula_sum              "O7 Ba3 Ti2"
_cell_length_a       4.081106456449685
_cell_length_b       4.085312900564166
_cell_length_c       11.072443008422852
_cell_angle_alpha    100.67630479172806
_cell_angle_beta     100.63039307762885
_cell_angle_gamma    89.82551167373454

_space_group_name_H-M_alt    "P 1"
_space_group_IT_number       1

loop_
  _space_group_symop_operation_xyz
  'x, y, z'

loop_
  _atom_site_type_symbol
  _atom_site_label
  _atom_site_symmetry_multiplicity
  _atom_site_fract_x
  _atom_site_fract_y
  _atom_site_fract_z
  _atom_site_occupancy
  O   O1        1.0  0.9805612153330522  0.5104923952944612  0.9215019134130905  1.0000
  O   O2        1.0  0.892463150228875  0.9097040863213655  0.7327487805559224  1.0000
  Ba  Ba1       1.0  0.19179540042239232  0.20862546884735772  0.3667124781300565  1.0000
  Ti  Ti1       1.0  0.9553441537588142  0.9720895328002976  0.9223368539868755  1.0000
  Ba  Ba2       1.0  0.3742496080308318  0.39123226099748415  0.7327847896962578  1.0000
  Ba  Ba3       1.0  0.5575782943389882  0.5746468294143734  0.098767611365037  1.0000
  O   O3        1.0  0.7919495173278911  0.3217419368651772  0.5438768423678481  1.0000
  Ti  Ti2       1.0  0.7658162453702768  0.7823015161847466  0.5431319310768379  1.0000
  O   O4        1.0  0.704477594599518  0.7214731317721212  0.3604713716207987  1.0000
  O   O5        1.0  0.07615132459490326  0.09373022314497162  0.10481454783472986  1.0000
  O   O6        1.0  0.49285843710953564  0.9979164369978695  0.9215091868003137  1.0000
  O   O7        1.0  0.3042211355076622  0.8092541648209175  0.5439152603824869  1.0000
