data_image0
_chemical_formula_structural       BaOBaTiO2BaO
_chemical_formula_sum              "Ba3 O4 Ti1"
_cell_length_a       5.879772978316482
_cell_length_b       5.887120804294267
_cell_length_c       5.875666618347168
_cell_angle_alpha    101.52022947288962
_cell_angle_beta     113.60637191310288
_cell_angle_gamma    113.67525009816374

_space_group_name_H-M_alt    "P 1"
_space_group_IT_number       1

loop_
  _space_group_symop_operation_xyz
  'x, y, z'

loop_
  _atom_site_type_symbol
  _atom_site_label
  _atom_site_symmetry_multiplicity
  _atom_site_fract_x
  _atom_site_fract_y
  _atom_site_fract_z
  _atom_site_occupancy
  Ba  Ba1       1.0  0.6540864419479573  0.8073950340022372  0.4109291549459402  1.0000
  O   O1        1.0  0.722576937105463  0.8419866360717702  0.9451132743566233  1.0000
  Ba  Ba2       1.0  0.6534445047055101  0.307606957220277  0.9101795856615025  1.0000
  Ti  Ti1       1.0  0.15361751862115142  0.057439757186508136  0.1604032560001878  1.0000
  O   O2        1.0  0.15349471126387393  0.842052873495891  0.37577727241012215  1.0000
  O   O3        1.0  0.15343546230224206  0.27278949157923454  0.9451641128170714  1.0000
  Ba  Ba3       1.0  0.15366389538775224  0.5574849129340642  0.6602111517015262  1.0000
  O   O4        1.0  0.5846765661916838  0.273284061330782  0.37614802417579046  1.0000
