data_image0
_chemical_formula_structural       Ba3TiOTiOTiOTiOTi2O3
_chemical_formula_sum              "Ba3 Ti6 O7"
_cell_length_a       4.084548984212398
_cell_length_b       5.857841162807833
_cell_length_c       10.493143081665039
_cell_angle_alpha    90.02646265508102
_cell_angle_beta     89.99260540956838
_cell_angle_gamma    89.99485937252194

_space_group_name_H-M_alt    "P 1"
_space_group_IT_number       1

loop_
  _space_group_symop_operation_xyz
  'x, y, z'

loop_
  _atom_site_type_symbol
  _atom_site_label
  _atom_site_symmetry_multiplicity
  _atom_site_fract_x
  _atom_site_fract_y
  _atom_site_fract_z
  _atom_site_occupancy
  Ba  Ba1       1.0  0.6681477853236901  0.6414066835604049  0.7231360043470884  1.0000
  Ba  Ba2       1.0  0.6682699117532902  0.6412113249831711  0.2060734057889645  1.0000
  Ba  Ba3       1.0  0.6682284589048231  0.14117789433766978  0.4646403247978561  1.0000
  Ti  Ti1       1.0  0.16814800757819162  0.1414281572906291  0.7295849690312592  1.0000
  O   O1        1.0  0.16824366064010893  0.8919204118032417  0.3241543392619283  1.0000
  Ti  Ti2       1.0  0.1683258147658802  0.14114057757545986  0.19958989947273204  1.0000
  O   O2        1.0  0.168155316956001  0.3906560326040071  0.604913974649501  1.0000
  Ti  Ti3       1.0  0.6682338349759054  0.14146734216829393  0.9645004632688856  1.0000
  O   O3        1.0  0.16825446529274174  0.3905283638754877  0.3241966863398418  1.0000
  Ti  Ti4       1.0  0.16820231634479155  0.6411409207577012  0.4646059558363678  1.0000
  O   O4        1.0  0.6681089866908372  0.14152381560877875  0.7541403681224406  1.0000
  Ti  Ti5       1.0  0.16821197191828824  0.4131287789000346  0.964569401070809  1.0000
  Ti  Ti6       1.0  0.16825917122966635  0.8698206846770129  0.9645559013686926  1.0000
  O   O5        1.0  0.6682536896599668  0.1411883042394397  0.17488948389743506  1.0000
  O   O6        1.0  0.6682053970437382  0.6411995893685744  0.4645889652534082  1.0000
  O   O7        1.0  0.16814315785282624  0.8919790099211946  0.6049671809278743  1.0000
