data_image0
_chemical_formula_structural       BaTiBaO3BaO2
_chemical_formula_sum              "Ba3 Ti1 O5"
_cell_length_a       3.9736005204054026
_cell_length_b       6.1879848386108876
_cell_length_c       7.305915832519531
_cell_angle_alpha    115.08229420300165
_cell_angle_beta     105.77827114412031
_cell_angle_gamma    89.97699840572307

_space_group_name_H-M_alt    "P 1"
_space_group_IT_number       1

loop_
  _space_group_symop_operation_xyz
  'x, y, z'

loop_
  _atom_site_type_symbol
  _atom_site_label
  _atom_site_symmetry_multiplicity
  _atom_site_fract_x
  _atom_site_fract_y
  _atom_site_fract_z
  _atom_site_occupancy
  Ba  Ba1       1.0  0.7929031230685799  0.9622945929582926  0.22507373814342865  1.0000
  Ti  Ti1       1.0  0.08149820374572825  0.7508139012212234  0.8024679859752932  1.0000
  Ba  Ba2       1.0  0.5818050250079985  0.25105707818006395  0.80273995748051  1.0000
  O   O1        1.0  0.19797171815560827  0.639262177935236  0.03474849608957326  1.0000
  O   O2        1.0  0.5817751625970585  0.7507794949475357  0.8025035070094504  1.0000
  O   O3        1.0  0.19751259671078106  0.09488834284495899  0.034235398037249024  1.0000
  Ba  Ba3       1.0  0.37036447760221264  0.5397305860855731  0.3799655350018611  1.0000
  O   O4        1.0  0.9660040848581977  0.4069897414806124  0.5709668649960588  1.0000
  O   O5        1.0  0.9655570317152325  0.8626115569502788  0.5704865048109733  1.0000
