data_image0
_chemical_formula_structural       BaOTiO2
_chemical_formula_sum              "Ba1 O3 Ti1"
_cell_length_a       3.9974938276004943
_cell_length_b       4.108679496540479
_cell_length_c       4.136514663696289
_cell_angle_alpha    90.41992939012152
_cell_angle_beta     89.96377518415485
_cell_angle_gamma    90.01528163801471

_space_group_name_H-M_alt    "P 1"
_space_group_IT_number       1

loop_
  _space_group_symop_operation_xyz
  'x, y, z'

loop_
  _atom_site_type_symbol
  _atom_site_label
  _atom_site_symmetry_multiplicity
  _atom_site_fract_x
  _atom_site_fract_y
  _atom_site_fract_z
  _atom_site_occupancy
  Ba  Ba1       1.0  0.8005354747123075  0.14862989043786887  0.7943314039062168  1.0000
  O   O1        1.0  0.3002171321977909  0.6643562877436475  0.7575100569698895  1.0000
  Ti  Ti1       1.0  0.30061428008221475  0.6322738694478017  0.3114660625545575  1.0000
  O   O2        1.0  0.8000266845848091  0.6707532414061929  0.27055993865532585  1.0000
  O   O3        1.0  0.2999848444424297  0.18148061466853466  0.2757344656424834  1.0000
