data_image0
_chemical_formula_structural       OBaTiOBa2O2
_chemical_formula_sum              "O4 Ba3 Ti1"
_cell_length_a       4.082296602316406
_cell_length_b       4.08219734779774
_cell_length_c       9.617408752441404
_cell_angle_alpha    90.01596465798113
_cell_angle_beta     90.04364741568543
_cell_angle_gamma    89.92725415202457

_space_group_name_H-M_alt    "P 1"
_space_group_IT_number       1

loop_
  _space_group_symop_operation_xyz
  'x, y, z'

loop_
  _atom_site_type_symbol
  _atom_site_label
  _atom_site_symmetry_multiplicity
  _atom_site_fract_x
  _atom_site_fract_y
  _atom_site_fract_z
  _atom_site_occupancy
  O   O1        1.0  0.6641211424368859  0.36920530985540306  0.24436343389121823  1.0000
  Ba  Ba1       1.0  0.16426989731614441  0.3689046852194864  0.7442872580794065  1.0000
  Ti  Ti1       1.0  0.16413694813761373  0.3692290502245349  0.24432847422102047  1.0000
  O   O2        1.0  0.1638491681625096  0.3690627028511958  0.033658688542069  1.0000
  Ba  Ba2       1.0  0.6642692064637296  0.8692239395026607  0.43939412641109343  1.0000
  Ba  Ba3       1.0  0.663990212062573  0.8691961307261559  0.04929060877989838  1.0000
  O   O3        1.0  0.16410412809168745  0.869184324161212  0.24438538217902828  1.0000
  O   O4        1.0  0.16447112559338023  0.36926956958643053  0.455063685188265  1.0000
