data_image0
_chemical_formula_structural       BaTiBaOTiOTi2
_chemical_formula_sum              "Ba2 Ti4 O2"
_cell_length_a       4.149048539410799
_cell_length_b       4.163929007104597
_cell_length_c       9.9710111618042
_cell_angle_alpha    89.99417635340092
_cell_angle_beta     90.01827326140368
_cell_angle_gamma    90.03228197824467

_space_group_name_H-M_alt    "P 1"
_space_group_IT_number       1

loop_
  _space_group_symop_operation_xyz
  'x, y, z'

loop_
  _atom_site_type_symbol
  _atom_site_label
  _atom_site_symmetry_multiplicity
  _atom_site_fract_x
  _atom_site_fract_y
  _atom_site_fract_z
  _atom_site_occupancy
  Ba  Ba1       1.0  0.1168494467576203  0.605791376555963  0.742165438384922  1.0000
  Ti  Ti1       1.0  0.11695875463474753  0.10585969604536513  0.10547608343304275  1.0000
  Ba  Ba2       1.0  0.6168345410194301  0.10584626463496923  0.4679961998672038  1.0000
  O   O1        1.0  0.6168849578817394  0.10584811140464269  0.730750907412617  1.0000
  Ti  Ti2       1.0  0.6169241995298484  0.10576371858873124  0.9191584190488914  1.0000
  O   O2        1.0  0.11672873688378778  0.605847951266684  0.4794016449371432  1.0000
  Ti  Ti3       1.0  0.11680008394443114  0.605856305571644  0.29099833548363235  1.0000
  Ti  Ti4       1.0  0.6168504223807156  0.6058027115448947  0.1047373510639082  1.0000
