data_image0
_chemical_formula_structural       BaOTi2O2BaO3
_chemical_formula_sum              "Ba2 O6 Ti2"
_cell_length_a       4.253221240614264
_cell_length_b       5.6464593063315665
_cell_length_c       5.645424842834473
_cell_angle_alpha    90.05485575267663
_cell_angle_beta     90.01781563873172
_cell_angle_gamma    89.99237318318639

_space_group_name_H-M_alt    "P 1"
_space_group_IT_number       1

loop_
  _space_group_symop_operation_xyz
  'x, y, z'

loop_
  _atom_site_type_symbol
  _atom_site_label
  _atom_site_symmetry_multiplicity
  _atom_site_fract_x
  _atom_site_fract_y
  _atom_site_fract_z
  _atom_site_occupancy
  Ba  Ba1       1.0  0.02998799034009419  0.5095904389723768  0.97949423843847  1.0000
  O   O1        1.0  0.9761358979727752  0.5097995433180648  0.47944928819438715  1.0000
  Ti  Ti1       1.0  0.548924874699045  0.5094774439751976  0.47956755190480926  1.0000
  Ti  Ti2       1.0  0.5489262410607353  0.0093901107317812  0.979534045458595  1.0000
  O   O2        1.0  0.4993855860501929  0.7598264591679239  0.729406514238349  1.0000
  O   O3        1.0  0.4996705747376534  0.7598969865317134  0.2293474900164093  1.0000
  Ba  Ba2       1.0  0.029959704559918438  0.009678098475520236  0.4794632280767883  1.0000
  O   O4        1.0  0.4996641425344063  0.25984106855156675  0.7292527400791665  1.0000
  O   O5        1.0  0.9761214975034679  0.009636969909790735  0.9793811190662687  1.0000
  O   O6        1.0  0.499351593890296  0.25986299308203786  0.22936088419781542  1.0000
