data_image0
_chemical_formula_structural       BaTiO2
_chemical_formula_sum              "Ba1 Ti1 O2"
_cell_length_a       3.2617142935485353
_cell_length_b       3.26149681701356
_cell_length_c       7.098229885101319
_cell_angle_alpha    76.64920968615633
_cell_angle_beta     76.70661694890043
_cell_angle_gamma    59.99014525322379

_space_group_name_H-M_alt    "P 1"
_space_group_IT_number       1

loop_
  _space_group_symop_operation_xyz
  'x, y, z'

loop_
  _atom_site_type_symbol
  _atom_site_label
  _atom_site_symmetry_multiplicity
  _atom_site_fract_x
  _atom_site_fract_y
  _atom_site_fract_z
  _atom_site_occupancy
  Ba  Ba1       1.0  0.12877080404456348  0.74044924175098  0.5437914069230138  1.0000
  Ti  Ti1       1.0  0.6290219851295948  0.24077639958472719  0.043813618993824036  1.0000
  O   O1        1.0  0.005322714148431959  0.6174929637614831  0.9145803298280263  1.0000
  O   O2        1.0  0.2526788209695265  0.8639202487157832  0.17305556884643894  1.0000
