data_image0
_chemical_formula_structural       Ba3O2TiO2TiO2TiBaO3
_chemical_formula_sum              "Ba4 O9 Ti3"
_cell_length_a       4.005274992804413
_cell_length_b       4.007751645579699
_cell_length_c       16.077035903930664
_cell_angle_alpha    90.03282156290634
_cell_angle_beta     90.01899726303688
_cell_angle_gamma    89.99513940954697

_space_group_name_H-M_alt    "P 1"
_space_group_IT_number       1

loop_
  _space_group_symop_operation_xyz
  'x, y, z'

loop_
  _atom_site_type_symbol
  _atom_site_label
  _atom_site_symmetry_multiplicity
  _atom_site_fract_x
  _atom_site_fract_y
  _atom_site_fract_z
  _atom_site_occupancy
  Ba  Ba1       1.0  0.4072271008827468  0.4256363022037713  0.2814215263419913  1.0000
  Ba  Ba2       1.0  0.41016350791897965  0.43524544733517545  0.5369201798111276  1.0000
  Ba  Ba3       1.0  0.9319710447458479  0.9524099454296768  0.9731655608003448  1.0000
  O   O1        1.0  0.9148733071390006  0.4326744186012801  0.6654117721594107  1.0000
  O   O2        1.0  0.9159474956605901  0.935158319964726  0.7906238012832  1.0000
  Ti  Ti1       1.0  0.91358476087976  0.9362135612094035  0.6685656900265192  1.0000
  O   O3        1.0  0.9212080929069321  0.44235258407392103  0.14885231128878448  1.0000
  O   O4        1.0  0.4265112989588812  0.9373662628802791  0.14893083796923245  1.0000
  Ti  Ti2       1.0  0.8978830309063888  0.9129573448917507  0.1669046023211242  1.0000
  O   O5        1.0  0.4214455436511717  0.9241620537941814  0.409147219111413  1.0000
  O   O6        1.0  0.9143129993369516  0.930327583029121  0.5350120351586157  1.0000
  Ti  Ti3       1.0  0.8992100853665547  0.943149516877682  0.41608246761793855  1.0000
  Ba  Ba4       1.0  0.4159618554726195  0.4363587074167105  0.7823836441882037  1.0000
  O   O7        1.0  0.4151473503100239  0.9332519455633522  0.665395223049261  1.0000
  O   O8        1.0  0.9175758434880337  0.41956513357857095  0.40914022385405263  1.0000
  O   O9        1.0  0.9129128617509639  0.9250448716469608  0.2809294865365214  1.0000
