data_image0
_chemical_formula_structural       OTiBaOTiOBaTiO2Ba2O4
_chemical_formula_sum              "O9 Ti3 Ba4"
_cell_length_a       5.948106961641726
_cell_length_b       6.423624773692945
_cell_length_c       8.494379997253418
_cell_angle_alpha    82.88811624666275
_cell_angle_beta     69.84795288574591
_cell_angle_gamma    61.36463186233704

_space_group_name_H-M_alt    "P 1"
_space_group_IT_number       1

loop_
  _space_group_symop_operation_xyz
  'x, y, z'

loop_
  _atom_site_type_symbol
  _atom_site_label
  _atom_site_symmetry_multiplicity
  _atom_site_fract_x
  _atom_site_fract_y
  _atom_site_fract_z
  _atom_site_occupancy
  O   O1        1.0  0.2637478190457962  0.3040956400012229  0.4789754223960727  1.0000
  Ti  Ti1       1.0  0.6120303743523121  0.08669707753697888  0.28072041895122074  1.0000
  Ba  Ba1       1.0  0.7285943314795237  0.4475938196763447  0.5877790822955636  1.0000
  O   O2        1.0  0.23305494877773233  0.8663010209497466  0.7309591573341379  1.0000
  Ti  Ti2       1.0  0.3674676691968804  0.10205021580609358  0.6543606769732397  1.0000
  O   O3        1.0  0.666347924229386  0.8568395322414339  0.46878443397732583  1.0000
  Ba  Ba2       1.0  0.49508670900621166  0.7258109062698844  0.9738072269854301  1.0000
  Ti  Ti3       1.0  0.8560085930461611  0.07138735278163762  0.9074081320743151  1.0000
  O   O4        1.0  0.5572076512804629  0.3168032644786116  0.0931103388678446  1.0000
  O   O5        1.0  0.41549529059342966  0.95866497964735  0.2148324860230657  1.0000
  Ba  Ba3       1.0  0.08230448069178584  0.3737451082488217  0.11041054255553677  1.0000
  Ba  Ba4       1.0  0.1415400664419259  0.7995967321371317  0.45104039939431034  1.0000
  O   O6        1.0  0.808424924669357  0.21477693274223242  0.3467715640458184  1.0000
  O   O7        1.0  0.611362215799384  0.08708562971933667  0.7807746671979865  1.0000
  O   O8        1.0  0.9601065063249664  0.8694506348979331  0.08293887515348936  1.0000
  O   O9        1.0  0.9905567850678636  0.30723367720323114  0.830521370202054  1.0000
