data_image0
_chemical_formula_structural       BaO2
_chemical_formula_sum              "Ba1 O2"
_cell_length_a       3.866739831643959
_cell_length_b       3.8668679241166863
_cell_length_c       4.418671607971191
_cell_angle_alpha    115.9858333269199
_cell_angle_beta     115.95341788247424
_cell_angle_gamma    89.99207821359423

_space_group_name_H-M_alt    "P 1"
_space_group_IT_number       1

loop_
  _space_group_symop_operation_xyz
  'x, y, z'

loop_
  _atom_site_type_symbol
  _atom_site_label
  _atom_site_symmetry_multiplicity
  _atom_site_fract_x
  _atom_site_fract_y
  _atom_site_fract_z
  _atom_site_occupancy
  Ba  Ba1       1.0  0.4479804843294713  0.7864876455612645  0.20882053492049035  1.0000
  O   O1        1.0  0.056144687605698254  0.39468923962241453  0.42523973237538903  1.0000
  O   O2        1.0  0.840014485867517  0.17820972285381528  0.9925279431692164  1.0000
