data_image0
_chemical_formula_structural       BaO2
_chemical_formula_sum              "Ba1 O2"
_cell_length_a       3.960392231333165
_cell_length_b       3.9350018533220585
_cell_length_c       4.222625732421875
_cell_angle_alpha    107.33049373643254
_cell_angle_beta     117.95490713398303
_cell_angle_gamma    89.94102328714509

_space_group_name_H-M_alt    "P 1"
_space_group_IT_number       1

loop_
  _space_group_symop_operation_xyz
  'x, y, z'

loop_
  _atom_site_type_symbol
  _atom_site_label
  _atom_site_symmetry_multiplicity
  _atom_site_fract_x
  _atom_site_fract_y
  _atom_site_fract_z
  _atom_site_occupancy
  Ba  Ba1       1.0  0.9005717825977868  0.46744637146667223  0.4903200927184507  1.0000
  O   O1        1.0  0.644501309378369  0.7888396784294102  0.9791850052557515  1.0000
  O   O2        1.0  0.5044921043466536  0.9858930438704  0.6994053984786008  1.0000
