data_image0
_chemical_formula_structural       Ba2TiBaO2
_chemical_formula_sum              "Ba3 Ti1 O2"
_cell_length_a       3.8229838956350974
_cell_length_b       3.82257382719349
_cell_length_c       12.825547218322756
_cell_angle_alpha    89.98314559667625
_cell_angle_beta     90.0800386555506
_cell_angle_gamma    90.12687327197335

_space_group_name_H-M_alt    "P 1"
_space_group_IT_number       1

loop_
  _space_group_symop_operation_xyz
  'x, y, z'

loop_
  _atom_site_type_symbol
  _atom_site_label
  _atom_site_symmetry_multiplicity
  _atom_site_fract_x
  _atom_site_fract_y
  _atom_site_fract_z
  _atom_site_occupancy
  Ba  Ba1       1.0  0.42367728814509065  0.020044541229425027  0.41646117779606656  1.0000
  Ba  Ba2       1.0  0.9242703323957274  0.5187998915575474  0.11565069855091814  1.0000
  Ti  Ti1       1.0  0.4240843636519714  0.019182625200861583  0.916434737106879  1.0000
  Ba  Ba3       1.0  0.9236983776980305  0.5198167638618633  0.7169848506888507  1.0000
  O   O1        1.0  0.4239988541442241  0.01893134120981349  0.06451755006918833  1.0000
  O   O2        1.0  0.4240016975819569  0.019727250142594594  0.7683492993617633  1.0000
