data_image0
_chemical_formula_structural       BaOBaTiO5Ti
_chemical_formula_sum              "Ba2 O6 Ti2"
_cell_length_a       5.7258381952366095
_cell_length_b       5.727508651023384
_cell_length_c       5.726504325866699
_cell_angle_alpha    60.00878553262425
_cell_angle_beta     60.02596358858047
_cell_angle_gamma    60.029418463698086

_space_group_name_H-M_alt    "P 1"
_space_group_IT_number       1

loop_
  _space_group_symop_operation_xyz
  'x, y, z'

loop_
  _atom_site_type_symbol
  _atom_site_label
  _atom_site_symmetry_multiplicity
  _atom_site_fract_x
  _atom_site_fract_y
  _atom_site_fract_z
  _atom_site_occupancy
  Ba  Ba1       1.0  0.18990035542689776  0.5538527373296113  0.3466165328431077  1.0000
  O   O1        1.0  0.6899305485983834  0.5538220600816461  0.3465980213627733  1.0000
  Ba  Ba2       1.0  0.6899110323163489  0.0539220234076242  0.8466255650685874  1.0000
  Ti  Ti1       1.0  0.4401448866434173  0.8041187120758883  0.5964805977651384  1.0000
  O   O2        1.0  0.6897934611717923  0.5539728152070176  0.846671738155263  1.0000
  O   O3        1.0  0.18988226352488866  0.5538088379409449  0.8466702651389403  1.0000
  O   O4        1.0  0.6899508147837925  0.053780341789808436  0.34654705056003815  1.0000
  O   O5        1.0  0.1900008966777343  0.053810852356302966  0.8466352399588915  1.0000
  O   O6        1.0  0.189945520546376  0.053920010373184515  0.3467448755792485  1.0000
  Ti  Ti2       1.0  0.9402333799771141  0.30411159817831623  0.09642780623675963  1.0000
