data_image0
_chemical_formula_structural       OBa2TiBaOTiO4
_chemical_formula_sum              "O6 Ba3 Ti2"
_cell_length_a       4.02832559173046
_cell_length_b       4.022421462345799
_cell_length_c       11.307341575622559
_cell_angle_alpha    100.22372313193911
_cell_angle_beta     100.23043692768542
_cell_angle_gamma    90.01878566778973

_space_group_name_H-M_alt    "P 1"
_space_group_IT_number       1

loop_
  _space_group_symop_operation_xyz
  'x, y, z'

loop_
  _atom_site_type_symbol
  _atom_site_label
  _atom_site_symmetry_multiplicity
  _atom_site_fract_x
  _atom_site_fract_y
  _atom_site_fract_z
  _atom_site_occupancy
  O   O1        1.0  0.2518657245231194  0.24177808488105618  0.9704344604145535  1.0000
  Ba  Ba1       1.0  0.8436139953333822  0.3333588994608337  0.15381126125240455  1.0000
  Ba  Ba2       1.0  0.660240532706405  0.1502120636891418  0.7871919759585393  1.0000
  Ti  Ti1       1.0  0.4444886257555569  0.9342750279771921  0.355496508208369  1.0000
  Ba  Ba3       1.0  0.026906286477337178  0.5167153744247656  0.5203579523539092  1.0000
  O   O2        1.0  0.15431365300070168  0.644273072805608  0.7754077198760109  1.0000
  Ti  Ti2       1.0  0.24268047794583505  0.7326358906373118  0.9521399138921052  1.0000
  O   O3        1.0  0.5329140016069621  0.022712664608273675  0.53222182381415  1.0000
  O   O4        1.0  0.935469671615657  0.9251981606104954  0.33742249852884476  1.0000
  O   O5        1.0  0.75168617438356  0.7417178822027468  0.9702225141126454  1.0000
  O   O6        1.0  0.4352944932812125  0.42518074728381927  0.3372567312450812  1.0000
