data_image0
_chemical_formula_structural       BaTi2Ba2OTiO7
_chemical_formula_sum              "Ba3 Ti3 O8"
_cell_length_a       3.549215163013252
_cell_length_b       6.582009056050316
_cell_length_c       9.726456642150879
_cell_angle_alpha    88.33691967737263
_cell_angle_beta     89.95617318114469
_cell_angle_gamma    89.99743435326555

_space_group_name_H-M_alt    "P 1"
_space_group_IT_number       1

loop_
  _space_group_symop_operation_xyz
  'x, y, z'

loop_
  _atom_site_type_symbol
  _atom_site_label
  _atom_site_symmetry_multiplicity
  _atom_site_fract_x
  _atom_site_fract_y
  _atom_site_fract_z
  _atom_site_occupancy
  Ba  Ba1       1.0  0.6553433150457588  0.8642709582834913  0.27127666206648854  1.0000
  Ti  Ti1       1.0  0.6567789175249715  0.8856894687127106  0.6054333803258959  1.0000
  Ti  Ti2       1.0  0.6564184244029586  0.34144896718977685  0.23131688502850256  1.0000
  Ba  Ba2       1.0  0.1563428818312353  0.3833197226255778  0.5765449663278029  1.0000
  Ba  Ba3       1.0  0.15617740496680466  0.7097838795356942  0.9186521889892676  1.0000
  O   O1        1.0  0.15689813954607296  0.8902904482446353  0.5202577745429872  1.0000
  Ti  Ti3       1.0  0.6561393151840798  0.22620499545107045  0.9057358293659763  1.0000
  O   O2        1.0  0.6559851913425271  0.99122234830407  0.00480141574777041  1.0000
  O   O3        1.0  0.1562241288122545  0.3151052635320057  0.8620462262515947  1.0000
  O   O4        1.0  0.6564391044639557  0.11046061716756066  0.7117476671401395  1.0000
  O   O5        1.0  0.15630176547846394  0.21634321500887108  0.25369014163098497  1.0000
  O   O6        1.0  0.656046985403452  0.4541944761926649  0.051989804138023836  1.0000
  O   O7        1.0  0.6565042655667978  0.6493185376170953  0.7072678180286633  1.0000
  O   O8        1.0  0.6563981919035353  0.4998977061189797  0.38237292029282594  1.0000
