data_image0
_chemical_formula_structural       O2TiBaO
_chemical_formula_sum              "O3 Ti1 Ba1"
_cell_length_a       4.05821470499573
_cell_length_b       4.089407223495226
_cell_length_c       4.087890625
_cell_angle_alpha    89.89450340836571
_cell_angle_beta     89.90344411567638
_cell_angle_gamma    89.90320506227997

_space_group_name_H-M_alt    "P 1"
_space_group_IT_number       1

loop_
  _space_group_symop_operation_xyz
  'x, y, z'

loop_
  _atom_site_type_symbol
  _atom_site_label
  _atom_site_symmetry_multiplicity
  _atom_site_fract_x
  _atom_site_fract_y
  _atom_site_fract_z
  _atom_site_occupancy
  O   O1        1.0  0.4348266003859035  0.13009469038906155  0.7627797357842698  1.0000
  O   O2        1.0  0.9243177847366564  0.6420993059174832  0.7612780829682128  1.0000
  Ti  Ti1       1.0  0.897551990681364  0.0975657418721011  0.7304082800822062  1.0000
  Ba  Ba1       1.0  0.4118763732303957  0.6129645868344357  0.24572377994535857  1.0000
  O   O3        1.0  0.9244029272750416  0.1285442142707169  0.2746347277545413  1.0000
