data_image0
_chemical_formula_structural       BaOTiO
_chemical_formula_sum              "Ba1 O2 Ti1"
_cell_length_a       3.309651637664899
_cell_length_b       3.306764765381801
_cell_length_c       6.28207778930664
_cell_angle_alpha    74.78040767052488
_cell_angle_beta     74.76972419250386
_cell_angle_gamma    60.06251975384201

_space_group_name_H-M_alt    "P 1"
_space_group_IT_number       1

loop_
  _space_group_symop_operation_xyz
  'x, y, z'

loop_
  _atom_site_type_symbol
  _atom_site_label
  _atom_site_symmetry_multiplicity
  _atom_site_fract_x
  _atom_site_fract_y
  _atom_site_fract_z
  _atom_site_occupancy
  Ba  Ba1       1.0  0.43253267583779353  0.1284316704141652  0.003236026530929632  1.0000
  O   O1        1.0  0.6542906294215419  0.3502890201071764  0.3376780019900384  1.0000
  Ti  Ti1       1.0  0.932451738283874  0.6284349922904955  0.5031424204237562  1.0000
  O   O2        1.0  0.21061582452260647  0.9065778694821034  0.6687236400999756  1.0000
