data_image0
_chemical_formula_structural       OBaTiO2TiBaO
_chemical_formula_sum              "O4 Ba2 Ti2"
_cell_length_a       4.605131645698018
_cell_length_b       6.279935466455904
_cell_length_c       5.794735908508301
_cell_angle_alpha    90.12476274239722
_cell_angle_beta     89.93591483759302
_cell_angle_gamma    111.5417896883079

_space_group_name_H-M_alt    "P 1"
_space_group_IT_number       1

loop_
  _space_group_symop_operation_xyz
  'x, y, z'

loop_
  _atom_site_type_symbol
  _atom_site_label
  _atom_site_symmetry_multiplicity
  _atom_site_fract_x
  _atom_site_fract_y
  _atom_site_fract_z
  _atom_site_occupancy
  O   O1        1.0  0.5047677478357114  0.2786618279900593  0.5696041486669926  1.0000
  Ba  Ba1       1.0  0.9281553360763971  0.12711738984825696  0.8106446904953831  1.0000
  Ti  Ti1       1.0  0.6296691009237656  0.5299775931621024  0.810398351164537  1.0000
  O   O2        1.0  0.7316601756015177  0.735052166667412  0.07010153168139384  1.0000
  O   O3        1.0  0.7313356963101598  0.7350704174966316  0.5512394108356484  1.0000
  Ti  Ti2       1.0  0.6064241990967569  0.48380664170890775  0.31042190720528173  1.0000
  Ba  Ba2       1.0  0.30780870463521576  0.8866267646065832  0.31033289178132273  1.0000
  O   O4        1.0  0.5042925516415795  0.2786545958850078  0.0507269022742975  1.0000
