data_image0
_chemical_formula_structural       OBaOBaO2Ti2O2
_chemical_formula_sum              "O6 Ba2 Ti2"
_cell_length_a       4.0146465069509425
_cell_length_b       7.910528730640844
_cell_length_c       6.215572834014892
_cell_angle_alpha    67.88788645883584
_cell_angle_beta     90.08354937606562
_cell_angle_gamma    90.08243606006783

_space_group_name_H-M_alt    "P 1"
_space_group_IT_number       1

loop_
  _space_group_symop_operation_xyz
  'x, y, z'

loop_
  _atom_site_type_symbol
  _atom_site_label
  _atom_site_symmetry_multiplicity
  _atom_site_fract_x
  _atom_site_fract_y
  _atom_site_fract_z
  _atom_site_occupancy
  O   O1        1.0  0.28487837647420156  0.1099256253757801  0.3503904072061762  1.0000
  Ba  Ba1       1.0  0.784817113620682  0.06702216365212153  0.09843308417362581  1.0000
  O   O2        1.0  0.2845597609399638  0.11738602295656274  0.8025705886394738  1.0000
  Ba  Ba2       1.0  0.2849827295551147  0.7857735215346573  0.7372469352820078  1.0000
  O   O3        1.0  0.784988771965319  0.7392827285473992  0.48750964509922273  1.0000
  O   O4        1.0  0.785187010368702  0.7385277817139232  0.03203444349332268  1.0000
  Ti  Ti1       1.0  0.2846442070930703  0.26394239757083976  0.5006319583544088  1.0000
  Ti  Ti2       1.0  0.7849940607045109  0.5886089359452907  0.3329600990291442  1.0000
  O   O5        1.0  0.28500232922935476  0.5342734369169656  0.3578596683288113  1.0000
  O   O6        1.0  0.7847954090274121  0.31814207757194557  0.47296806413092957  1.0000
