data_image0
_chemical_formula_structural       BaTiO2
_chemical_formula_sum              "Ba1 Ti1 O2"
_cell_length_a       4.075740238437707
_cell_length_b       4.035019280057617
_cell_length_c       4.038928031921387
_cell_angle_alpha    90.02417454517958
_cell_angle_beta     90.02467314874907
_cell_angle_gamma    89.99428563662424

_space_group_name_H-M_alt    "P 1"
_space_group_IT_number       1

loop_
  _space_group_symop_operation_xyz
  'x, y, z'

loop_
  _atom_site_type_symbol
  _atom_site_label
  _atom_site_symmetry_multiplicity
  _atom_site_fract_x
  _atom_site_fract_y
  _atom_site_fract_z
  _atom_site_occupancy
  Ba  Ba1       1.0  0.46373311735577516  0.7999197833839963  0.17398965468241953  1.0000
  Ti  Ti1       1.0  0.9639112284212674  0.2997409035543708  0.6739132315386616  1.0000
  O   O1        1.0  0.9634938699148262  0.299949410501765  0.17416638489909422  1.0000
  O   O2        1.0  0.963595937075709  0.8001248877892806  0.6739946642804354  1.0000
