data_image0
_chemical_formula_structural       BaTiBaO6BaTiBaO2
_chemical_formula_sum              "Ba4 Ti2 O8"
_cell_length_a       4.050423145296334
_cell_length_b       4.05005742409788
_cell_length_c       13.500106811523438
_cell_angle_alpha    89.99542627804254
_cell_angle_beta     89.9999410327813
_cell_angle_gamma    89.91534914150385

_space_group_name_H-M_alt    "P 1"
_space_group_IT_number       1

loop_
  _space_group_symop_operation_xyz
  'x, y, z'

loop_
  _atom_site_type_symbol
  _atom_site_label
  _atom_site_symmetry_multiplicity
  _atom_site_fract_x
  _atom_site_fract_y
  _atom_site_fract_z
  _atom_site_occupancy
  Ba  Ba1       1.0  0.15108920181426175  0.16510400636979924  0.11575552619734382  1.0000
  Ti  Ti1       1.0  0.15043259415709387  0.16450955445941282  0.7590187037656442  1.0000
  Ba  Ba2       1.0  0.6505925205547346  0.6648854247572145  0.6154520953032855  1.0000
  O   O1        1.0  0.6509311568559771  0.16491069552789198  0.2592685853777282  1.0000
  O   O2        1.0  0.15053662200141435  0.6650957577508266  0.2593389934736354  1.0000
  O   O3        1.0  0.6507924898980901  0.16491997253611118  0.7590472646960009  1.0000
  O   O4        1.0  0.15079389270010968  0.16491194233919382  0.9065537131576556  1.0000
  O   O5        1.0  0.150637449412831  0.6651166316478164  0.7590755423262734  1.0000
  O   O6        1.0  0.6507212680595245  0.6651597476834245  0.40667335403357613  1.0000
  Ba  Ba3       1.0  0.6507204531376541  0.6648041411625081  0.9026644214492423  1.0000
  Ti  Ti2       1.0  0.651649924408266  0.6654643406047894  0.25933046381727215  1.0000
  Ba  Ba4       1.0  0.15109459416153698  0.1651795989026759  0.4027264937894197  1.0000
  O   O7        1.0  0.15068753030128806  0.16502929143616435  0.6116122804695413  1.0000
  O   O8        1.0  0.6507614511340853  0.6649314546480687  0.11191147812638554  1.0000
