data_image0
_chemical_formula_structural       Ba2TiOTiBaO6
_chemical_formula_sum              "Ba3 Ti2 O7"
_cell_length_a       4.074817407169483
_cell_length_b       4.071316180864257
_cell_length_c       11.112250328063963
_cell_angle_alpha    100.47236278599242
_cell_angle_beta     100.51595918143909
_cell_angle_gamma    89.99026270394488

_space_group_name_H-M_alt    "P 1"
_space_group_IT_number       1

loop_
  _space_group_symop_operation_xyz
  'x, y, z'

loop_
  _atom_site_type_symbol
  _atom_site_label
  _atom_site_symmetry_multiplicity
  _atom_site_fract_x
  _atom_site_fract_y
  _atom_site_fract_z
  _atom_site_occupancy
  Ba  Ba1       1.0  0.21892873989258071  0.2998968728502999  0.8177419464380167  1.0000
  Ba  Ba2       1.0  0.8532919393305161  0.9222261595494476  0.08612977829287044  1.0000
  Ti  Ti1       1.0  0.4554915446168157  0.49671621673827665  0.2624661485299385  1.0000
  O   O1        1.0  0.7074782589061582  0.7903011961559749  0.8236920442115601  1.0000
  Ti  Ti2       1.0  0.645517635471615  0.7258247549292255  0.6414430218739954  1.0000
  Ba  Ba3       1.0  0.03714868132326556  0.11102701252301542  0.45197093175976555  1.0000
  O   O2        1.0  0.10738239404806307  0.7010905543314868  0.6405963507370229  1.0000
  O   O3        1.0  0.9186804887866973  0.5211035202493619  0.26329039602103527  1.0000
  O   O4        1.0  0.619014045123111  0.19157708553885192  0.6407553119355229  1.0000
  O   O5        1.0  0.43014801647371687  0.030788252488097564  0.2631421464847198  1.0000
  O   O6        1.0  0.5196454134951766  0.6112633052745585  0.45198531208802295  1.0000
  O   O7        1.0  0.33604338019567714  0.43218209790209267  0.08020130405631687  1.0000
