data_image0
_chemical_formula_structural       BaOTiO3
_chemical_formula_sum              "Ba1 O4 Ti1"
_cell_length_a       3.9265676933039786
_cell_length_b       4.216366459985245
_cell_length_c       5.1234769821167
_cell_angle_alpha    90.67650534991914
_cell_angle_beta     84.22868359370374
_cell_angle_gamma    90.52661688590902

_space_group_name_H-M_alt    "P 1"
_space_group_IT_number       1

loop_
  _space_group_symop_operation_xyz
  'x, y, z'

loop_
  _atom_site_type_symbol
  _atom_site_label
  _atom_site_symmetry_multiplicity
  _atom_site_fract_x
  _atom_site_fract_y
  _atom_site_fract_z
  _atom_site_occupancy
  Ba  Ba1       1.0  0.22681415688831105  0.749941856949673  0.23826110348713642  1.0000
  O   O1        1.0  0.6672707540122986  0.2692620608339032  0.24275900990101584  1.0000
  Ti  Ti1       1.0  0.7687147182057171  0.2040029360793207  0.8276533068976996  1.0000
  O   O2        1.0  0.781071978213018  0.7857815113568999  0.8498094192219359  1.0000
  O   O3        1.0  0.282437089539422  0.26311044387629995  0.862155909673139  1.0000
  O   O4        1.0  0.9015773845775998  0.2554298278589843  0.44893480882164133  1.0000
