data_image0
_chemical_formula_structural       BaOBaOTi2O5
_chemical_formula_sum              "Ba2 O7 Ti2"
_cell_length_a       3.9573954147249237
_cell_length_b       3.9585378291733937
_cell_length_c       11.16183090209961
_cell_angle_alpha    100.29114381953391
_cell_angle_beta     100.23110067111237
_cell_angle_gamma    90.10172421125537

_space_group_name_H-M_alt    "P 1"
_space_group_IT_number       1

loop_
  _space_group_symop_operation_xyz
  'x, y, z'

loop_
  _atom_site_type_symbol
  _atom_site_label
  _atom_site_symmetry_multiplicity
  _atom_site_fract_x
  _atom_site_fract_y
  _atom_site_fract_z
  _atom_site_occupancy
  Ba  Ba1       1.0  0.8372313022311306  0.8344736376145616  0.002952779809603905  1.0000
  O   O1        1.0  0.4219771399995263  0.9186811064460608  0.1720637602104744  1.0000
  Ba  Ba2       1.0  0.19897192077815992  0.19583602719373824  0.7272988992274717  1.0000
  O   O2        1.0  0.6143489430285127  0.11137967426345091  0.5581579394306134  1.0000
  Ti  Ti1       1.0  0.4345346928645762  0.43277732922143475  0.19641192950722453  1.0000
  Ti  Ti2       1.0  0.6014296836982423  0.5978904209403294  0.5340603782834245  1.0000
  O   O3        1.0  0.1147779186207035  0.6107656741560659  0.558164995540067  1.0000
  O   O4        1.0  0.9217183232706359  0.41941412293979125  0.17203913339289229  1.0000
  O   O5        1.0  0.7075705077842229  0.7045970884272378  0.7440410130095364  1.0000
  O   O6        1.0  0.3285634248434028  0.32549070569574334  0.9858728265312544  1.0000
  O   O7        1.0  0.5181788041317513  0.5151024435170515  0.3651494249685145  1.0000
