data_image0
_chemical_formula_structural       TiOTiO3BaOBaO
_chemical_formula_sum              "Ti2 O6 Ba2"
_cell_length_a       5.092872526987888
_cell_length_b       5.864416136166341
_cell_length_c       5.8655219078063965
_cell_angle_alpha    120.05191168359711
_cell_angle_beta     90.02225526286897
_cell_angle_gamma    90.01824593985168

_space_group_name_H-M_alt    "P 1"
_space_group_IT_number       1

loop_
  _space_group_symop_operation_xyz
  'x, y, z'

loop_
  _atom_site_type_symbol
  _atom_site_label
  _atom_site_symmetry_multiplicity
  _atom_site_fract_x
  _atom_site_fract_y
  _atom_site_fract_z
  _atom_site_occupancy
  Ti  Ti1       1.0  0.37894441481881214  0.6198863789415429  0.6120733917595872  1.0000
  O   O1        1.0  0.6288756737896696  0.3212527005507642  0.4626033220778592  1.0000
  Ti  Ti2       1.0  0.8788704646460679  0.6198416684291692  0.6119659781137373  1.0000
  O   O2        1.0  0.6289742401614721  0.769244099419236  0.9105511470332348  1.0000
  O   O3        1.0  0.6288433438243393  0.7689914029117456  0.46286751209203253  1.0000
  O   O4        1.0  0.1287821480155967  0.47047708024825424  0.3133444412848863  1.0000
  Ba  Ba1       1.0  0.12895535336199185  0.9534321730884097  0.2786959122686071  1.0000
  O   O5        1.0  0.12879197399325043  0.470756281115426  0.7612810480219976  1.0000
  Ba  Ba2       1.0  0.6303279154714305  0.28604585952901296  0.9453587002393733  1.0000
  O   O6        1.0  0.12879460744896076  0.9186628443476174  0.761421272105899  1.0000
