data_image0
_chemical_formula_structural       BaOBa2O3TiO
_chemical_formula_sum              "Ba3 O5 Ti1"
_cell_length_a       3.975602975215592
_cell_length_b       6.1782559146424045
_cell_length_c       7.320419788360595
_cell_angle_alpha    114.93106033776365
_cell_angle_beta     105.7561604483104
_cell_angle_gamma    90.01216726108457

_space_group_name_H-M_alt    "P 1"
_space_group_IT_number       1

loop_
  _space_group_symop_operation_xyz
  'x, y, z'

loop_
  _atom_site_type_symbol
  _atom_site_label
  _atom_site_symmetry_multiplicity
  _atom_site_fract_x
  _atom_site_fract_y
  _atom_site_fract_z
  _atom_site_occupancy
  Ba  Ba1       1.0  0.6030209024456289  0.11628625128594981  0.4334474869024819  1.0000
  O   O1        1.0  0.1979731178350912  0.9835844880966341  0.6235464594246289  1.0000
  Ba  Ba2       1.0  0.8137154030200705  0.8272773713062613  0.8551342189914737  1.0000
  Ba  Ba3       1.0  0.024742264000862026  0.5381447216321159  0.2769570100283389  1.0000
  O   O2        1.0  0.1980331624234709  0.43880261207419397  0.6232695296913923  1.0000
  O   O3        1.0  0.4296829029601578  0.21548279368038642  0.08708970841003905  1.0000
  O   O4        1.0  0.4296314143780765  0.6706578590131189  0.08670303978985616  1.0000
  Ti  Ti1       1.0  0.31386861011532563  0.3271709429195605  0.8551454841940194  1.0000
  O   O5        1.0  0.8138118639308932  0.3270255278882541  0.8551263349811801  1.0000
