data_image0
_chemical_formula_structural       BaTi2OBaO3
_chemical_formula_sum              "Ba2 Ti2 O4"
_cell_length_a       3.8208558241808914
_cell_length_b       4.01614942660612
_cell_length_c       8.38412857055664
_cell_angle_alpha    89.77873852204077
_cell_angle_beta     95.48143428508077
_cell_angle_gamma    90.00272775095628

_space_group_name_H-M_alt    "P 1"
_space_group_IT_number       1

loop_
  _space_group_symop_operation_xyz
  'x, y, z'

loop_
  _atom_site_type_symbol
  _atom_site_label
  _atom_site_symmetry_multiplicity
  _atom_site_fract_x
  _atom_site_fract_y
  _atom_site_fract_z
  _atom_site_occupancy
  Ba  Ba1       1.0  0.17683045044518975  0.4511171014511944  0.6567629379412766  1.0000
  Ti  Ti1       1.0  0.11829154827122275  0.4517710263987105  0.06947583724539078  1.0000
  Ti  Ti2       1.0  0.675498024942396  0.9506644507170098  0.9322726943989569  1.0000
  O   O1        1.0  0.6835713971982684  0.9514516016262168  0.6983514075524634  1.0000
  Ba  Ba2       1.0  0.6175477975230101  0.9513186701078682  0.34494535140040994  1.0000
  O   O2        1.0  0.11071831026587835  0.45098193642686607  0.30348224868063195  1.0000
  O   O3        1.0  0.598937376237356  0.45071754538760406  0.9602496424502763  1.0000
  O   O4        1.0  0.19478706518777522  0.9517167381462748  0.04173225720462779  1.0000
