data_image0
_chemical_formula_structural       TiBa2TiOTiO6TiO
_chemical_formula_sum              "Ti4 Ba2 O8"
_cell_length_a       4.094821097149448
_cell_length_b       5.647754317569686
_cell_length_c       8.53378677368164
_cell_angle_alpha    90.18726580809978
_cell_angle_beta     92.45895947677883
_cell_angle_gamma    90.02050673221167

_space_group_name_H-M_alt    "P 1"
_space_group_IT_number       1

loop_
  _space_group_symop_operation_xyz
  'x, y, z'

loop_
  _atom_site_type_symbol
  _atom_site_label
  _atom_site_symmetry_multiplicity
  _atom_site_fract_x
  _atom_site_fract_y
  _atom_site_fract_z
  _atom_site_occupancy
  Ti  Ti1       1.0  0.20271545096231477  0.6058811502791468  0.8561787773086449  1.0000
  Ba  Ba1       1.0  0.6769977266220532  0.6062573599804079  0.5184619847588497  1.0000
  Ba  Ba2       1.0  0.6532124274794778  0.10531638907947281  0.18683635647951494  1.0000
  Ti  Ti2       1.0  0.14713981339869672  0.10561052421591502  0.8486858844763766  1.0000
  O   O1        1.0  0.17473634034618207  0.8555724807106427  0.3519701138757178  1.0000
  Ti  Ti3       1.0  0.16329033520922234  0.10624026728414851  0.5098350588399878  1.0000
  O   O2        1.0  0.20104941335998902  0.8526516768119295  0.6922785799973548  1.0000
  O   O3        1.0  0.1484270048917173  0.8586842004835249  0.012519352132056624  1.0000
  O   O4        1.0  0.17433091803602188  0.356027140130098  0.35199189213095095  1.0000
  O   O5        1.0  0.7005147697560942  0.1060794618874739  0.5112188672496633  1.0000
  O   O6        1.0  0.14920834488296109  0.35310370215822634  0.012403545841451159  1.0000
  O   O7        1.0  0.20122957232982097  0.35859038886199035  0.6924237017865366  1.0000
  Ti  Ti4       1.0  0.1324131494731803  0.6053031930208822  0.19465956725630826  1.0000
  O   O8        1.0  0.6748226226063299  0.60546043932036  0.1923007399497581  1.0000
