data_image0
_chemical_formula_structural       OTiBaOTiO2Ba
_chemical_formula_sum              "O4 Ti2 Ba2"
_cell_length_a       4.142752076954461
_cell_length_b       5.837011159142851
_cell_length_c       6.300670623779296
_cell_angle_alpha    117.46765630827078
_cell_angle_beta     109.08124786893558
_cell_angle_gamma    90.0142572848504

_space_group_name_H-M_alt    "P 1"
_space_group_IT_number       1

loop_
  _space_group_symop_operation_xyz
  'x, y, z'

loop_
  _atom_site_type_symbol
  _atom_site_label
  _atom_site_symmetry_multiplicity
  _atom_site_fract_x
  _atom_site_fract_y
  _atom_site_fract_z
  _atom_site_occupancy
  O   O1        1.0  0.2943013710806263  0.04870485773944235  0.7242625283122708  1.0000
  Ti  Ti1       1.0  0.09557739486705423  0.8494838007753345  0.3284481839479533  1.0000
  Ba  Ba1       1.0  0.5549300320265086  0.3087023086249431  0.24661165551344907  1.0000
  O   O2        1.0  0.6037758892750312  0.8566358663040592  0.34480996931220725  1.0000
  Ti  Ti2       1.0  0.8025398916590999  0.05622389792771392  0.7407003879684734  1.0000
  O   O3        1.0  0.9489776878988702  0.9528022504910884  0.03444434448969236  1.0000
  O   O4        1.0  0.9488709529130149  0.45267483566699734  0.03420953039745154  1.0000
  Ba  Ba2       1.0  0.3431241785857317  0.5970684643199287  0.822433413419983  1.0000
