data_image0
_chemical_formula_structural       BaTiOTiO2BaTiO6
_chemical_formula_sum              "Ba2 Ti3 O9"
_cell_length_a       3.950584529169961
_cell_length_b       5.779813064940593
_cell_length_c       8.6167631149292
_cell_angle_alpha    90.12647029135053
_cell_angle_beta     90.01397707114046
_cell_angle_gamma    89.98290654195841

_space_group_name_H-M_alt    "P 1"
_space_group_IT_number       1

loop_
  _space_group_symop_operation_xyz
  'x, y, z'

loop_
  _atom_site_type_symbol
  _atom_site_label
  _atom_site_symmetry_multiplicity
  _atom_site_fract_x
  _atom_site_fract_y
  _atom_site_fract_z
  _atom_site_occupancy
  Ba  Ba1       1.0  0.12858267535443824  0.46982287552437774  0.7278306048962033  1.0000
  Ti  Ti1       1.0  0.628495278613016  0.9699577327608979  0.7098835116153894  1.0000
  O   O1        1.0  0.12866041300428666  0.4703090666231865  0.049725806145386395  1.0000
  Ti  Ti2       1.0  0.6288826583958225  0.4701654570569677  0.051570183243532956  1.0000
  O   O2        1.0  0.6287035983443644  0.2174113591795968  0.9058835569429518  1.0000
  O   O3        1.0  0.6287034339280084  0.24672187943430562  0.23134312554812564  1.0000
  Ba  Ba2       1.0  0.12869663263279563  0.9701635203084799  0.09790538893342197  1.0000
  Ti  Ti3       1.0  0.6281795973978025  0.4695898233848331  0.39043856653231845  1.0000
  O   O4        1.0  0.6286064192270714  0.7182410228401974  0.5765061773562976  1.0000
  O   O5        1.0  0.1286386279024962  0.9696603820083909  0.743105498670252  1.0000
  O   O6        1.0  0.6286476373918717  0.2198710352049069  0.5763204797275246  1.0000
  O   O7        1.0  0.1287677430756896  0.4688876973571921  0.4124542517730137  1.0000
  O   O8        1.0  0.6286288491929813  0.7224549497708997  0.9064973633282754  1.0000
  O   O9        1.0  0.6285383406057051  0.6926398842776268  0.2322231954072552  1.0000
