data_image0
_chemical_formula_structural       BaOBaO4TiBaOBaOTiO
_chemical_formula_sum              "Ba4 O8 Ti2"
_cell_length_a       6.176536000754184
_cell_length_b       6.179944802396528
_cell_length_c       8.17236042022705
_cell_angle_alpha    90.08600824627388
_cell_angle_beta     90.04404356579211
_cell_angle_gamma    120.04715742963728

_space_group_name_H-M_alt    "P 1"
_space_group_IT_number       1

loop_
  _space_group_symop_operation_xyz
  'x, y, z'

loop_
  _atom_site_type_symbol
  _atom_site_label
  _atom_site_symmetry_multiplicity
  _atom_site_fract_x
  _atom_site_fract_y
  _atom_site_fract_z
  _atom_site_occupancy
  Ba  Ba1       1.0  0.2798395132821953  0.6171431710215776  0.7952124697383655  1.0000
  O   O1        1.0  0.612835886285739  0.28316634375136  0.27427861503030004  1.0000
  Ba  Ba2       1.0  0.27978823374217515  0.6171228115185244  0.29518942311084306  1.0000
  O   O2        1.0  0.4534539495489097  0.9644944254452741  0.5746717272162304  1.0000
  O   O3        1.0  0.10593962169324371  0.26967115349454146  0.015638804088148644  1.0000
  O   O4        1.0  0.4540014470811631  0.44428087822669027  0.5743566215666777  1.0000
  O   O5        1.0  0.9472174472032105  0.9515082704507223  0.31623960228251463  1.0000
  Ti  Ti1       1.0  0.6131189025105334  0.28380585257433205  0.4948930953587303  1.0000
  Ba  Ba3       1.0  0.612815130593811  0.28371490749144357  0.9829388639715613  1.0000
  O   O6        1.0  0.9332674374379606  0.4443637560201905  0.5739507172584435  1.0000
  Ba  Ba4       1.0  0.9464876076068204  0.9503972096818238  0.6076156052526107  1.0000
  O   O7        1.0  0.10649926231880946  0.7906601856428309  0.01626539541363343  1.0000
  Ti  Ti2       1.0  0.9466490484315047  0.9504850060291313  0.09562956412818441  1.0000
  O   O8        1.0  0.6264979696636888  0.7894708369804461  0.016564439301824458  1.0000
