data_image0
_chemical_formula_structural       Ba2TiOTiBaO6
_chemical_formula_sum              "Ba3 Ti2 O7"
_cell_length_a       4.073254415175581
_cell_length_b       4.065112914519412
_cell_length_c       11.107632637023926
_cell_angle_alpha    100.64931227791527
_cell_angle_beta     100.57175561191562
_cell_angle_gamma    90.16023195985322

_space_group_name_H-M_alt    "P 1"
_space_group_IT_number       1

loop_
  _space_group_symop_operation_xyz
  'x, y, z'

loop_
  _atom_site_type_symbol
  _atom_site_label
  _atom_site_symmetry_multiplicity
  _atom_site_fract_x
  _atom_site_fract_y
  _atom_site_fract_z
  _atom_site_occupancy
  Ba  Ba1       1.0  0.46907465264383436  0.630401705362813  0.05617935541666301  1.0000
  Ba  Ba2       1.0  0.8352218914907906  0.9849332097087117  0.7882081369709767  1.0000
  Ti  Ti1       1.0  0.23269892652642493  0.3834497959426079  0.6117520409456519  1.0000
  O   O1        1.0  0.2576649574905937  0.9156610052250399  0.6111265342972284  1.0000
  Ti  Ti2       1.0  0.04284912058982467  0.2321957334927491  0.2326548453342681  1.0000
  Ba  Ba3       1.0  0.6509346223268717  0.8076778693521399  0.42219160311319553  1.0000
  O   O2        1.0  0.1680642639258735  0.30793874437211344  0.4222130730606141  1.0000
  O   O3        1.0  0.5802046387921558  0.20926443886636734  0.23338635610692957  1.0000
  O   O4        1.0  0.06914271772528238  0.7002635179311327  0.23330959484193398  1.0000
  O   O5        1.0  0.3523981443490946  0.5008214866276378  0.7942269773885242  1.0000
  O   O6        1.0  0.7690263504249448  0.4061511907882543  0.6109972232831192  1.0000
  O   O7        1.0  0.9798292730636227  0.11520774308852465  0.05019180810711738  1.0000
