data_image0
_chemical_formula_structural       BaTi2OBaTi2O
_chemical_formula_sum              "Ba2 Ti4 O2"
_cell_length_a       4.164587975059001
_cell_length_b       4.17664768670986
_cell_length_c       9.947019577026367
_cell_angle_alpha    89.99390997600011
_cell_angle_beta     90.0008972593389
_cell_angle_gamma    90.02349835621456

_space_group_name_H-M_alt    "P 1"
_space_group_IT_number       1

loop_
  _space_group_symop_operation_xyz
  'x, y, z'

loop_
  _atom_site_type_symbol
  _atom_site_label
  _atom_site_symmetry_multiplicity
  _atom_site_fract_x
  _atom_site_fract_y
  _atom_site_fract_z
  _atom_site_occupancy
  Ba  Ba1       1.0  0.8926649529301001  0.25777644410882783  0.7224500942945395  1.0000
  Ti  Ti1       1.0  0.3926743876686204  0.7578169881346833  0.5456195050859688  1.0000
  Ti  Ti2       1.0  0.8925445475413466  0.7576960212503293  0.35969330423736123  1.0000
  O   O1        1.0  0.8923085872607582  0.2576363171059347  0.9855661164684324  1.0000
  Ba  Ba2       1.0  0.3924059606130999  0.7576657092965181  0.9975133740205685  1.0000
  Ti  Ti3       1.0  0.39246667111608197  0.25778182622913176  0.36028180470064197  1.0000
  Ti  Ti4       1.0  0.8923857999744842  0.2576609785134393  0.17432696358896313  1.0000
  O   O2        1.0  0.392744671502459  0.7577484948503113  0.7343795100026548  1.0000
