data_image0
_chemical_formula_structural       Ti2Ba2O6
_chemical_formula_sum              "Ti2 Ba2 O6"
_cell_length_a       5.120520401035635
_cell_length_b       5.8796352898315565
_cell_length_c       5.878222942352295
_cell_angle_alpha    120.25698269227773
_cell_angle_beta     90.01915435606477
_cell_angle_gamma    90.04943258390877

_space_group_name_H-M_alt    "P 1"
_space_group_IT_number       1

loop_
  _space_group_symop_operation_xyz
  'x, y, z'

loop_
  _atom_site_type_symbol
  _atom_site_label
  _atom_site_symmetry_multiplicity
  _atom_site_fract_x
  _atom_site_fract_y
  _atom_site_fract_z
  _atom_site_occupancy
  Ti  Ti1       1.0  0.4542191059051247  0.41962755615859193  0.6477608963545647  1.0000
  Ti  Ti2       1.0  0.9542155401886175  0.41875333535974824  0.6490053528985521  1.0000
  Ba  Ba1       1.0  0.7386131415527014  0.08586034796517078  0.9814157307795874  1.0000
  Ba  Ba2       1.0  0.2386095816975151  0.7522517630600942  0.31507163877543587  1.0000
  O   O1        1.0  0.6647883919272597  0.5695349411650136  0.497928480523406  1.0000
  O   O2        1.0  0.6643285827921431  0.11826200272334485  0.4971858229512319  1.0000
  O   O3        1.0  0.16507944217223772  0.7201846716053919  0.7995762406759174  1.0000
  O   O4        1.0  0.6649393889601275  0.5703055985959989  0.9492941278696894  1.0000
  O   O5        1.0  0.1645625095821567  0.268891162543712  0.7987724415422551  1.0000
  O   O6        1.0  0.1643972731772523  0.2680863077935606  0.347415415065547  1.0000
