data_image0
_chemical_formula_structural       Ba2TiO3TiO
_chemical_formula_sum              "Ba2 Ti2 O4"
_cell_length_a       3.8144075791490653
_cell_length_b       3.7888269878140255
_cell_length_c       10.993610382080078
_cell_angle_alpha    89.88289891169643
_cell_angle_beta     90.01991933610245
_cell_angle_gamma    89.9859937867744

_space_group_name_H-M_alt    "P 1"
_space_group_IT_number       1

loop_
  _space_group_symop_operation_xyz
  'x, y, z'

loop_
  _atom_site_type_symbol
  _atom_site_label
  _atom_site_symmetry_multiplicity
  _atom_site_fract_x
  _atom_site_fract_y
  _atom_site_fract_z
  _atom_site_occupancy
  Ba  Ba1       1.0  0.8906853672583255  0.6027791309509077  0.31316221048886983  1.0000
  Ba  Ba2       1.0  0.3908295258933222  0.10505593501678837  0.7048761220275348  1.0000
  Ti  Ti1       1.0  0.8907265559036468  0.604088661133856  0.9433614814648228  1.0000
  O   O1        1.0  0.8904453298321319  0.10369891471314277  0.01075563212325499  1.0000
  O   O2        1.0  0.39055816634548274  0.10299226024752126  0.2457967847716186  1.0000
  O   O3        1.0  0.8908472500590664  0.6047483770581102  0.77231269503301  1.0000
  Ti  Ti2       1.0  0.3905197965190771  0.10359114859035634  0.07473427849030519  1.0000
  O   O4        1.0  0.39078429526499675  0.6039686694003915  0.007451706187788363  1.0000
