data_image0
_chemical_formula_structural       BaTiO2
_chemical_formula_sum              "Ba1 Ti1 O2"
_cell_length_a       4.078289526058208
_cell_length_b       4.036821182742833
_cell_length_c       4.027911186218262
_cell_angle_alpha    90.05296379312296
_cell_angle_beta     90.03953563854192
_cell_angle_gamma    90.01620371349156

_space_group_name_H-M_alt    "P 1"
_space_group_IT_number       1

loop_
  _space_group_symop_operation_xyz
  'x, y, z'

loop_
  _atom_site_type_symbol
  _atom_site_label
  _atom_site_symmetry_multiplicity
  _atom_site_fract_x
  _atom_site_fract_y
  _atom_site_fract_z
  _atom_site_occupancy
  Ba  Ba1       1.0  0.7135514637060446  0.8697986594598608  0.125819484223182  1.0000
  Ti  Ti1       1.0  0.21390167423634546  0.36954317487129107  0.6258798349966717  1.0000
  O   O1        1.0  0.21347586164963164  0.8700092333606583  0.6258936196577126  1.0000
  O   O2        1.0  0.2135296302733271  0.3696308145356645  0.1256997093264674  1.0000
