data_image0
_chemical_formula_structural       BaTiBa2TiO5TiOTiO2
_chemical_formula_sum              "Ba3 Ti4 O8"
_cell_length_a       5.840076086995278
_cell_length_b       5.648321801278331
_cell_length_c       8.489871978759766
_cell_angle_alpha    70.62022761856542
_cell_angle_beta     67.9988695878049
_cell_angle_gamma    61.12679913785611

_space_group_name_H-M_alt    "P 1"
_space_group_IT_number       1

loop_
  _space_group_symop_operation_xyz
  'x, y, z'

loop_
  _atom_site_type_symbol
  _atom_site_label
  _atom_site_symmetry_multiplicity
  _atom_site_fract_x
  _atom_site_fract_y
  _atom_site_fract_z
  _atom_site_occupancy
  Ba  Ba1       1.0  0.48546664435649295  0.123008509438638  0.4780267014250974  1.0000
  Ti  Ti1       1.0  0.7895868635851936  0.40617011330296143  0.60792647757465  1.0000
  Ba  Ba2       1.0  0.051354486703494816  0.7021727462322517  0.7541764850514121  1.0000
  Ba  Ba3       1.0  0.6174282470317247  0.2811574430285964  0.0304066185150445  1.0000
  Ti  Ti2       1.0  0.3131804079610388  0.998148958647448  0.9004824643479611  1.0000
  O   O1        1.0  0.05136619739082235  0.20216816362042617  0.7542326184573532  1.0000
  O   O2        1.0  0.1095138634422266  0.765568594661221  0.07498558235411157  1.0000
  O   O3        1.0  0.5516994816707713  0.7025297485903063  0.25386793247397615  1.0000
  O   O4        1.0  0.9936696948394689  0.6386254011259888  0.43352105581747896  1.0000
  O   O5        1.0  0.5512975442921677  0.7021568917920901  0.7541755106733818  1.0000
  Ti  Ti3       1.0  0.924433921433946  0.5152968883148875  0.25494483656321854  1.0000
  O   O6        1.0  0.5514081143394146  0.20212982029434076  0.7541934506362793  1.0000
  Ti  Ti4       1.0  0.17867199326668368  0.888971366082605  0.2535257430342103  1.0000
  O   O7        1.0  0.10950592183120753  0.2598832943047701  0.07501096222939778  1.0000
  O   O8        1.0  0.9935735908163634  0.1443449763628794  0.43344879679990506  1.0000
