data_image0
_chemical_formula_structural       TiBaTiO5BaTiO2
_chemical_formula_sum              "Ti3 Ba2 O7"
_cell_length_a       5.36544069280471
_cell_length_b       6.315133025276591
_cell_length_c       7.083704948425293
_cell_angle_alpha    118.78718288286814
_cell_angle_beta     108.8643985898214
_cell_angle_gamma    89.17797455475797

_space_group_name_H-M_alt    "P 1"
_space_group_IT_number       1

loop_
  _space_group_symop_operation_xyz
  'x, y, z'

loop_
  _atom_site_type_symbol
  _atom_site_label
  _atom_site_symmetry_multiplicity
  _atom_site_fract_x
  _atom_site_fract_y
  _atom_site_fract_z
  _atom_site_occupancy
  Ti  Ti1       1.0  0.23786319897404182  0.5649032421924933  0.2005926340445724  1.0000
  Ba  Ba1       1.0  0.06141865047901719  0.8977294665162022  0.8244397587711219  1.0000
  Ti  Ti2       1.0  0.7642323811773757  0.41340198442387627  0.2295709223841987  1.0000
  O   O1        1.0  0.5681878555508745  0.7834131619198343  0.9290568190746897  1.0000
  O   O2        1.0  0.12474183821515551  0.8775150630001219  0.22436786274024012  1.0000
  O   O3        1.0  0.7670726640870836  0.2362026260256334  0.398211099887741  1.0000
  O   O4        1.0  0.3846165538358259  0.3065314105682442  0.007844665042343322  1.0000
  O   O5        1.0  0.8828540946304414  0.3501342066225431  0.9832271142720284  1.0000
  Ba  Ba2       1.0  0.4425949299148961  0.30354416671729695  0.6338699967249136  1.0000
  Ti  Ti3       1.0  0.7736381189798975  0.9016114684079454  0.22363729691125844  1.0000
  O   O6        1.0  0.17075964802289756  0.5576610907232059  0.43814538731708313  1.0000
  O   O7        1.0  0.6546326556886471  0.7540305154601555  0.3713371865754205  1.0000
