data_image0
_chemical_formula_structural       Ba3O3TiO5TiBaO2TiO
_chemical_formula_sum              "Ba4 O11 Ti3"
_cell_length_a       3.968350696647366
_cell_length_b       4.015318979771218
_cell_length_c       18.541715621948242
_cell_angle_alpha    89.98663582428647
_cell_angle_beta     89.93353109980589
_cell_angle_gamma    89.97412974946688

_space_group_name_H-M_alt    "P 1"
_space_group_IT_number       1

loop_
  _space_group_symop_operation_xyz
  'x, y, z'

loop_
  _atom_site_type_symbol
  _atom_site_label
  _atom_site_symmetry_multiplicity
  _atom_site_fract_x
  _atom_site_fract_y
  _atom_site_fract_z
  _atom_site_occupancy
  Ba  Ba1       1.0  0.7131863445130862  0.652525171764633  0.13779267059284223  1.0000
  Ba  Ba2       1.0  0.6961570745048502  0.6553096723831846  0.9124277635834741  1.0000
  Ba  Ba3       1.0  0.6753140839430976  0.6568647171823786  0.6718555730405379  1.0000
  O   O1        1.0  0.6997250579063136  0.163460394554485  0.026435145396888186  1.0000
  O   O2        1.0  0.20611222363248977  0.16015634861454875  0.1324216489178589  1.0000
  O   O3        1.0  0.6896530001460656  0.16025160547387865  0.8030348131350662  1.0000
  Ti  Ti1       1.0  0.18588432530747082  0.15335980968344953  0.7943570043703433  1.0000
  O   O4        1.0  0.1457455231472858  0.1590914645191222  0.44732688378129715  1.0000
  O   O5        1.0  0.20041561256920626  0.6663247470468797  0.02671732267353884  1.0000
  O   O6        1.0  0.18293690149856873  0.15867797072085718  0.6969416013176969  1.0000
  O   O7        1.0  0.16857470500942248  0.6576267785290881  0.5656177538681453  1.0000
  O   O8        1.0  0.19558372337564944  0.1610224484922793  0.9173164516708869  1.0000
  Ti  Ti2       1.0  0.20935730771561495  0.14354708456890378  0.028942553423348633  1.0000
  Ba  Ba4       1.0  0.24719235812561574  0.15286255570698146  0.31127048555368697  1.0000
  O   O9        1.0  0.7583521738107135  0.6553041445633155  0.28221019875262826  1.0000
  O   O10       1.0  0.190845302164839  0.6612050491459078  0.8023203958283143  1.0000
  Ti  Ti3       1.0  0.15978456872096497  0.15813195239512845  0.5394752458038024  1.0000
  O   O11       1.0  0.6673929746920247  0.15750792810647865  0.5664539805952196  1.0000
