data_image0
_chemical_formula_structural       OBaTiO
_chemical_formula_sum              "O2 Ba1 Ti1"
_cell_length_a       3.309978367609567
_cell_length_b       3.3091470438823443
_cell_length_c       6.291821002960205
_cell_angle_alpha    74.76548333375504
_cell_angle_beta     74.75984137754321
_cell_angle_gamma    60.055320020685144

_space_group_name_H-M_alt    "P 1"
_space_group_IT_number       1

loop_
  _space_group_symop_operation_xyz
  'x, y, z'

loop_
  _atom_site_type_symbol
  _atom_site_label
  _atom_site_symmetry_multiplicity
  _atom_site_fract_x
  _atom_site_fract_y
  _atom_site_fract_z
  _atom_site_occupancy
  O   O1        1.0  0.11311869426639726  0.28813977143288244  0.8854451110960825  1.0000
  Ba  Ba1       1.0  0.8912198507373293  0.0661893702351183  0.5508841828589706  1.0000
  Ti  Ti1       1.0  0.3913653048614232  0.566417719578003  0.050772818609440745  1.0000
  O   O2        1.0  0.6694930528188474  0.8445345119773949  0.2162829237161166  1.0000
