data_image0
_chemical_formula_structural       TiBaTiBaO4
_chemical_formula_sum              "Ti2 Ba2 O4"
_cell_length_a       3.933301412730957
_cell_length_b       5.919298044163743
_cell_length_c       7.3296074867248535
_cell_angle_alpha    101.81661190811374
_cell_angle_beta     89.94411106700348
_cell_angle_gamma    89.99785099515145

_space_group_name_H-M_alt    "P 1"
_space_group_IT_number       1

loop_
  _space_group_symop_operation_xyz
  'x, y, z'

loop_
  _atom_site_type_symbol
  _atom_site_label
  _atom_site_symmetry_multiplicity
  _atom_site_fract_x
  _atom_site_fract_y
  _atom_site_fract_z
  _atom_site_occupancy
  Ti  Ti1       1.0  0.30960402110031465  0.38017008590688284  0.8633494030427571  1.0000
  Ba  Ba1       1.0  0.309251506000738  0.14368227009611756  0.3150862527955783  1.0000
  Ti  Ti2       1.0  0.8092828109021498  0.6031993350268305  0.15292098074834978  1.0000
  Ba  Ba2       1.0  0.8096331697779002  0.8396620366866215  0.701146079518192  1.0000
  O   O1        1.0  0.8092027908079694  0.86116979220011  0.3399619130688783  1.0000
  O   O2        1.0  0.809603985992325  0.43345081759055026  0.873595315731831  1.0000
  O   O3        1.0  0.3096883262341803  0.12222487879382635  0.6762859653396484  1.0000
  O   O4        1.0  0.3093169630301254  0.5499384115310144  0.14263862001244765  1.0000
