data_image0
_chemical_formula_structural       Ba2TiO3BaTiO4
_chemical_formula_sum              "Ba3 Ti2 O7"
_cell_length_a       4.074232519395325
_cell_length_b       4.073413001399708
_cell_length_c       11.110207557678224
_cell_angle_alpha    100.50626087408992
_cell_angle_beta     100.50033251044677
_cell_angle_gamma    89.82913178390767

_space_group_name_H-M_alt    "P 1"
_space_group_IT_number       1

loop_
  _space_group_symop_operation_xyz
  'x, y, z'

loop_
  _atom_site_type_symbol
  _atom_site_label
  _atom_site_symmetry_multiplicity
  _atom_site_fract_x
  _atom_site_fract_y
  _atom_site_fract_z
  _atom_site_occupancy
  Ba  Ba1       1.0  0.5412553217908722  0.7857455860875477  0.22837727977629335  1.0000
  Ba  Ba2       1.0  0.3523573409987511  0.5966091350603634  0.8625995634712936  1.0000
  Ti  Ti1       1.0  0.9260988238827252  0.17049220748828653  0.038850063418378336  1.0000
  O   O1        1.0  0.0412188443873066  0.28553993975522435  0.22841081160727492  1.0000
  O   O2        1.0  0.4612328751325306  0.19557027978408895  0.03955130745676814  1.0000
  O   O3        1.0  0.862345099023535  0.10644671182945079  0.8566374061606425  1.0000
  Ba  Ba3       1.0  0.730125106354953  0.9746478776809628  0.5941328763847135  1.0000
  Ti  Ti2       1.0  0.15633763241338425  0.400764014940047  0.41791240356104165  1.0000
  O   O4        1.0  0.13112618617065247  0.8657058372855813  0.41723674180768083  1.0000
  O   O5        1.0  0.9514349200627817  0.7053292476046866  0.03955793690704848  1.0000
  O   O6        1.0  0.22012731484594092  0.46449024478158113  0.6001639882098573  1.0000
  O   O7        1.0  0.6213057701022865  0.37549721353426985  0.41722700438468796  1.0000
