data_image0
_chemical_formula_structural       O2BaTiO2
_chemical_formula_sum              "O4 Ba1 Ti1"
_cell_length_a       3.4158047105805163
_cell_length_b       3.8041374876694602
_cell_length_c       6.350377559661865
_cell_angle_alpha    90.27297101004538
_cell_angle_beta     89.98714125866503
_cell_angle_gamma    89.95694499522018

_space_group_name_H-M_alt    "P 1"
_space_group_IT_number       1

loop_
  _space_group_symop_operation_xyz
  'x, y, z'

loop_
  _atom_site_type_symbol
  _atom_site_label
  _atom_site_symmetry_multiplicity
  _atom_site_fract_x
  _atom_site_fract_y
  _atom_site_fract_z
  _atom_site_occupancy
  O   O1        1.0  0.19398375010785765  0.06793974995292092  0.746956451848909  1.0000
  O   O2        1.0  0.6940348617704003  0.47844019868078125  0.5204483232329098  1.0000
  Ba  Ba1       1.0  0.1938996485753171  0.8997947336981214  0.3041389274266514  1.0000
  Ti  Ti1       1.0  0.6936788944670095  0.39984808094363083  0.8040185949325214  1.0000
  O   O3        1.0  0.19370933829517084  0.7314363255404093  0.8610759520962233  1.0000
  O   O4        1.0  0.6938503525804441  0.31994270534339575  0.08735806086807717  1.0000
