data_image0
_chemical_formula_structural       Ba2TiOTiO3
_chemical_formula_sum              "Ba2 Ti2 O4"
_cell_length_a       3.2389191106198036
_cell_length_b       3.2395488199131
_cell_length_c       12.577565193176268
_cell_angle_alpha    90.0166476765747
_cell_angle_beta     89.9864240890178
_cell_angle_gamma    119.98172620073163

_space_group_name_H-M_alt    "P 1"
_space_group_IT_number       1

loop_
  _space_group_symop_operation_xyz
  'x, y, z'

loop_
  _atom_site_type_symbol
  _atom_site_label
  _atom_site_symmetry_multiplicity
  _atom_site_fract_x
  _atom_site_fract_y
  _atom_site_fract_z
  _atom_site_occupancy
  Ba  Ba1       1.0  0.031541185524584334  0.6498665119495917  0.46374213786545143  1.0000
  Ba  Ba2       1.0  0.6982758315614103  0.9827824636887507  0.9637299925740914  1.0000
  Ti  Ti1       1.0  0.6980526737119551  0.9830766024232319  0.7098252055531701  1.0000
  O   O1        1.0  0.3650327116708544  0.31617307579401355  0.12778375254020782  1.0000
  Ti  Ti2       1.0  0.031699174223895586  0.6495985894935343  0.2094235514111042  1.0000
  O   O2        1.0  0.6983150139727988  0.983049536812913  0.292552107057586  1.0000
  O   O3        1.0  0.03139305822703634  0.6496690211300479  0.79316839941898  1.0000
  O   O4        1.0  0.36476679779156307  0.3164257744841867  0.6283885668899151  1.0000
