data_image0
_chemical_formula_structural       TiBaOTiOBaTiO5
_chemical_formula_sum              "Ti3 Ba2 O7"
_cell_length_a       3.9699230206030025
_cell_length_b       4.269899609728157
_cell_length_c       10.279776573181152
_cell_angle_alpha    88.56803286432553
_cell_angle_beta     101.06690308655438
_cell_angle_gamma    89.99384849991799

_space_group_name_H-M_alt    "P 1"
_space_group_IT_number       1

loop_
  _space_group_symop_operation_xyz
  'x, y, z'

loop_
  _atom_site_type_symbol
  _atom_site_label
  _atom_site_symmetry_multiplicity
  _atom_site_fract_x
  _atom_site_fract_y
  _atom_site_fract_z
  _atom_site_occupancy
  Ti  Ti1       1.0  0.8198872747168312  0.8091629282184511  0.5819985148597744  1.0000
  Ba  Ba1       1.0  0.028211312810874446  0.38212586364641715  0.9984043597456985  1.0000
  O   O1        1.0  0.12168843517647074  0.8925163198896106  0.1854988365985664  1.0000
  Ti  Ti2       1.0  0.6250129423457012  0.8493298105177564  0.192210546419359  1.0000
  O   O2        1.0  0.7223003217654818  0.875802455110467  0.38691501904502745  1.0000
  Ba  Ba2       1.0  0.22472736652697056  0.34641489391253755  0.39148944104529115  1.0000
  Ti  Ti3       1.0  0.4267456374672921  0.894520369312189  0.7958495299438502  1.0000
  O   O3        1.0  0.8174725787667007  0.39933110938142985  0.5771826848106065  1.0000
  O   O4        1.0  0.32766846985296644  0.8792907053402614  0.5975508143730376  1.0000
  O   O5        1.0  0.6221755054410553  0.41236886086103564  0.18644189939244493  1.0000
  O   O6        1.0  0.5201119472722483  0.8948713515225896  0.9824238101176654  1.0000
  O   O7        1.0  0.921625735119856  0.8829412007422427  0.7855785579181765  1.0000
