data_image0
_chemical_formula_structural       Ba2OTiO5Ti
_chemical_formula_sum              "Ba2 O6 Ti2"
_cell_length_a       5.091072226201101
_cell_length_b       5.860962308855466
_cell_length_c       5.858414649963379
_cell_angle_alpha    120.22850038351032
_cell_angle_beta     90.09044102937042
_cell_angle_gamma    90.06842734958268

_space_group_name_H-M_alt    "P 1"
_space_group_IT_number       1

loop_
  _space_group_symop_operation_xyz
  'x, y, z'

loop_
  _atom_site_type_symbol
  _atom_site_label
  _atom_site_symmetry_multiplicity
  _atom_site_fract_x
  _atom_site_fract_y
  _atom_site_fract_z
  _atom_site_occupancy
  Ba  Ba1       1.0  0.9666785630822554  0.7689541544695337  0.7873172109445635  1.0000
  Ba  Ba2       1.0  0.4666418601785647  0.43588744306348715  0.12108143008397002  1.0000
  O   O1        1.0  0.46671375849858787  0.9522895033162314  0.15485154897742232  1.0000
  Ti  Ti1       1.0  0.7169062953042903  0.10243844699733833  0.4540875500306632  1.0000
  O   O2        1.0  0.4676478849782158  0.40166663544137965  0.604321687532936  1.0000
  O   O3        1.0  0.467295719680846  0.953280293573601  0.6034228911301251  1.0000
  O   O4        1.0  0.9667663370477404  0.8030669935350309  0.3041001262421134  1.0000
  O   O5        1.0  0.9677573845899251  0.2525516523949235  0.7535590164471918  1.0000
  O   O6        1.0  0.9671685469783374  0.2514416298705334  0.30488455395586417  1.0000
  Ti  Ti2       1.0  0.2168958042147715  0.102359997176988  0.45428996764647867  1.0000
