data_image0
_chemical_formula_structural       BaTiO2TiO3BaO2Ba
_chemical_formula_sum              "Ba3 Ti2 O7"
_cell_length_a       4.079861021657875
_cell_length_b       4.076871399988227
_cell_length_c       11.094314575195312
_cell_angle_alpha    100.42651168119136
_cell_angle_beta     100.57021816817765
_cell_angle_gamma    89.99216852420398

_space_group_name_H-M_alt    "P 1"
_space_group_IT_number       1

loop_
  _space_group_symop_operation_xyz
  'x, y, z'

loop_
  _atom_site_type_symbol
  _atom_site_label
  _atom_site_symmetry_multiplicity
  _atom_site_fract_x
  _atom_site_fract_y
  _atom_site_fract_z
  _atom_site_occupancy
  Ba  Ba1       1.0  0.9770575899815165  0.37468189229590887  0.17793620492109233  1.0000
  Ti  Ti1       1.0  0.3688767333297966  0.7600038418200951  0.988432611771505  1.0000
  O   O1        1.0  0.3073556955558158  0.6969684385991608  0.8062209850043943  1.0000
  O   O2        1.0  0.9074877296810464  0.7850017650304605  0.9891744555546138  1.0000
  Ti  Ti2       1.0  0.5583747358088684  0.9894241273957212  0.3673606036125311  1.0000
  O   O3        1.0  0.09622608185333897  0.964373215365168  0.3666680559109457  1.0000
  O   O4        1.0  0.395210122561418  0.29510456262602336  0.9890063216257305  1.0000
  O   O5        1.0  0.5842326378277936  0.45440798485710865  0.3668304925884698  1.0000
  Ba  Ba2       1.0  0.16087218958885133  0.563416091868359  0.5438028898061932  1.0000
  O   O6        1.0  0.4954428405189166  0.874662234211587  0.1779109087779039  1.0000
  O   O7        1.0  0.6788786403210143  0.0524105816575392  0.5496830934034663  1.0000
  Ba  Ba3       1.0  0.7950384245351267  0.18600230482192673  0.8120740109121453  1.0000
