data_image0
_chemical_formula_structural       Ti2OBaOBa
_chemical_formula_sum              "Ti2 O2 Ba2"
_cell_length_a       3.7151296125030755
_cell_length_b       3.7158312928758797
_cell_length_c       10.94116497039795
_cell_angle_alpha    90.03587465627588
_cell_angle_beta     89.97953242771447
_cell_angle_gamma    89.98202544654113

_space_group_name_H-M_alt    "P 1"
_space_group_IT_number       1

loop_
  _space_group_symop_operation_xyz
  'x, y, z'

loop_
  _atom_site_type_symbol
  _atom_site_label
  _atom_site_symmetry_multiplicity
  _atom_site_fract_x
  _atom_site_fract_y
  _atom_site_fract_z
  _atom_site_occupancy
  Ti  Ti1       1.0  0.7060695855235676  0.4738272433097006  0.7754659785870416  1.0000
  Ti  Ti2       1.0  0.20608035504458197  0.9737690549691748  0.8974535634711025  1.0000
  O   O1        1.0  0.7061902278658458  0.4736311159105647  0.6056389036198337  1.0000
  Ba  Ba1       1.0  0.705861182815904  0.47409915787904233  0.13039782109381534  1.0000
  O   O2        1.0  0.20596278082808497  0.9739734308089544  0.06728328396694895  1.0000
  Ba  Ba2       1.0  0.20627776286600008  0.9735139980097917  0.5424762133202397  1.0000
