data_image0
_chemical_formula_structural       BaOBaTiO2
_chemical_formula_sum              "Ba2 O3 Ti1"
_cell_length_a       3.710319873184951
_cell_length_b       3.9370887986774608
_cell_length_c       9.692323684692383
_cell_angle_alpha    101.70669410476664
_cell_angle_beta     101.17338663864642
_cell_angle_gamma    89.99331595107762

_space_group_name_H-M_alt    "P 1"
_space_group_IT_number       1

loop_
  _space_group_symop_operation_xyz
  'x, y, z'

loop_
  _atom_site_type_symbol
  _atom_site_label
  _atom_site_symmetry_multiplicity
  _atom_site_fract_x
  _atom_site_fract_y
  _atom_site_fract_z
  _atom_site_occupancy
  Ba  Ba1       1.0  0.9153961318473851  0.8354203430239876  0.7512021640047457  1.0000
  O   O1        1.0  0.5421223998952817  0.9613704812049515  0.003295790869088515  1.0000
  Ba  Ba2       1.0  0.16864151193251342  0.08729350536705739  0.25540010714242034  1.0000
  Ti  Ti1       1.0  0.5422252139102213  0.46139014800605793  0.00333423848610655  1.0000
  O   O2        1.0  0.4371709738165615  0.35679370506922925  0.7938752951925667  1.0000
  O   O3        1.0  0.6470153291822932  0.5659752785665089  0.21279364539950996  1.0000
