data_image0
_chemical_formula_structural       TiBaO2
_chemical_formula_sum              "Ti1 Ba1 O2"
_cell_length_a       3.30607994402469
_cell_length_b       3.307452415068364
_cell_length_c       6.330222129821777
_cell_angle_alpha    74.86151632641686
_cell_angle_beta     74.85146950305182
_cell_angle_gamma    60.0236011326118

_space_group_name_H-M_alt    "P 1"
_space_group_IT_number       1

loop_
  _space_group_symop_operation_xyz
  'x, y, z'

loop_
  _atom_site_type_symbol
  _atom_site_label
  _atom_site_symmetry_multiplicity
  _atom_site_fract_x
  _atom_site_fract_y
  _atom_site_fract_z
  _atom_site_occupancy
  Ti  Ti1       1.0  0.3895542216099362  0.23090983704397836  0.20010031386667082  1.0000
  Ba  Ba1       1.0  0.8898451086014832  0.7309273581953667  0.6999408286126326  1.0000
  O   O1        1.0  0.6678983961522763  0.5092187906613755  0.3651784258146211  1.0000
  O   O2        1.0  0.11142267065244683  0.9526769690594193  0.03477815950625528  1.0000
