data_image0
_chemical_formula_structural       TiBa2O3TiBaO4
_chemical_formula_sum              "Ti2 Ba3 O7"
_cell_length_a       4.078982632422313
_cell_length_b       4.080280202414274
_cell_length_c       11.09536361694336
_cell_angle_alpha    100.51899987988881
_cell_angle_beta     100.51450566892495
_cell_angle_gamma    90.17460251092223

_space_group_name_H-M_alt    "P 1"
_space_group_IT_number       1

loop_
  _space_group_symop_operation_xyz
  'x, y, z'

loop_
  _atom_site_type_symbol
  _atom_site_label
  _atom_site_symmetry_multiplicity
  _atom_site_fract_x
  _atom_site_fract_y
  _atom_site_fract_z
  _atom_site_occupancy
  Ti  Ti1       1.0  0.18500635496431667  0.7742660630397298  0.20534487647002483  1.0000
  Ba  Ba1       1.0  0.42252073421917985  0.9818618287972462  0.6498715986031657  1.0000
  Ba  Ba2       1.0  0.7877265830576807  0.3478833021197286  0.38174913864603666  1.0000
  O   O1        1.0  0.02228206885022932  0.04691555460657649  0.8270840642315198  1.0000
  O   O2        1.0  0.7222875593835927  0.7480408534976318  0.20459176720852076  1.0000
  O   O3        1.0  0.5341608024595528  0.5587649277612847  0.8270813340123059  1.0000
  Ti  Ti2       1.0  0.9959245148734535  0.5845123714811943  0.8262886126165074  1.0000
  Ba  Ba3       1.0  0.6040941420654391  0.16595249139607518  0.01580631182291453  1.0000
  O   O4        1.0  0.9345844497145318  0.46388308320085064  0.6438711453554502  1.0000
  O   O5        1.0  0.12160638374143677  0.6480473415814317  0.01588007638602011  1.0000
  O   O6        1.0  0.2103678878707824  0.23583386910249576  0.20458371673622414  1.0000
  O   O7        1.0  0.3054449493192276  0.835408481821601  0.38778682206939646  1.0000
