data_image0
_chemical_formula_structural       BaTiBaTiBaO4BaO2
_chemical_formula_sum              "Ba4 Ti2 O6"
_cell_length_a       5.627712363266016
_cell_length_b       6.3650605582715585
_cell_length_c       7.680722236633301
_cell_angle_alpha    94.70689082330115
_cell_angle_beta     90.0825111887794
_cell_angle_gamma    116.12982480591207

_space_group_name_H-M_alt    "P 1"
_space_group_IT_number       1

loop_
  _space_group_symop_operation_xyz
  'x, y, z'

loop_
  _atom_site_type_symbol
  _atom_site_label
  _atom_site_symmetry_multiplicity
  _atom_site_fract_x
  _atom_site_fract_y
  _atom_site_fract_z
  _atom_site_occupancy
  Ba  Ba1       1.0  0.5026701791957733  0.8431878995774748  0.8296770222847133  1.0000
  Ti  Ti1       1.0  0.2435763216278445  0.32522519655020693  0.5473002922288001  1.0000
  Ba  Ba2       1.0  0.5595618501585732  0.9571476258239942  0.39906411409041836  1.0000
  Ti  Ti2       1.0  0.8185834638994205  0.4750804826971581  0.6814209856313342  1.0000
  Ba  Ba3       1.0  0.882779382308511  0.6033310159150248  0.21526883984659367  1.0000
  O   O1        1.0  0.9302783383836478  0.6983629694765957  0.8676949785492627  1.0000
  O   O2        1.0  0.9324467146895136  0.21510278779868156  0.698906337573245  1.0000
  O   O3        1.0  0.616999273292398  0.5846882718907738  0.5293272081335976  1.0000
  O   O4        1.0  0.12965502916599006  0.5851263103790822  0.5297693479171838  1.0000
  Ba  Ba4       1.0  0.17938999261252975  0.1969513014818259  0.013405773648270447  1.0000
  O   O5        1.0  0.4451581852838459  0.21562371166896005  0.699422127292746  1.0000
  O   O6        1.0  0.13186056206360938  0.1019545940503225  0.36102671556355004  1.0000
