data_image0
_chemical_formula_structural       BaOBaO3Ti2O
_chemical_formula_sum              "Ba2 O5 Ti2"
_cell_length_a       3.702059330426102
_cell_length_b       6.276331612117441
_cell_length_c       7.919955730438232
_cell_angle_alpha    70.48553643990874
_cell_angle_beta     76.83290742408796
_cell_angle_gamma    73.29213696597257

_space_group_name_H-M_alt    "P 1"
_space_group_IT_number       1

loop_
  _space_group_symop_operation_xyz
  'x, y, z'

loop_
  _atom_site_type_symbol
  _atom_site_label
  _atom_site_symmetry_multiplicity
  _atom_site_fract_x
  _atom_site_fract_y
  _atom_site_fract_z
  _atom_site_occupancy
  Ba  Ba1       1.0  0.588139170579643  0.7885607782437726  0.18826707548782146  1.0000
  O   O1        1.0  0.9261002942245189  0.1779479210533476  0.12605849069291686  1.0000
  Ba  Ba2       1.0  0.7306083529262614  0.21856340381214762  0.4719477668249374  1.0000
  O   O2        1.0  0.1645969122433619  0.9829449579207488  0.8367339739695883  1.0000
  O   O3        1.0  0.15622629713007335  0.506905663811656  0.3332015887850593  1.0000
  O   O4        1.0  0.48499163044259647  0.37543137838884827  0.8098553975353346  1.0000
  Ti  Ti1       1.0  0.9951708021469814  0.26992244220804174  0.8934655627025979  1.0000
  Ti  Ti2       1.0  0.34119445425115275  0.7218571912308388  0.745247791171731  1.0000
  O   O5        1.0  0.389359677732797  0.8564383349096475  0.5135198441505104  1.0000
