data_image0
_chemical_formula_structural       Ti2Ba2O7
_chemical_formula_sum              "Ti2 Ba2 O7"
_cell_length_a       5.235324323159751
_cell_length_b       6.675968814740343
_cell_length_c       6.67221212387085
_cell_angle_alpha    73.19720997085247
_cell_angle_beta     95.65180630974696
_cell_angle_gamma    84.56419651404957

_space_group_name_H-M_alt    "P 1"
_space_group_IT_number       1

loop_
  _space_group_symop_operation_xyz
  'x, y, z'

loop_
  _atom_site_type_symbol
  _atom_site_label
  _atom_site_symmetry_multiplicity
  _atom_site_fract_x
  _atom_site_fract_y
  _atom_site_fract_z
  _atom_site_occupancy
  Ti  Ti1       1.0  0.8568489633314444  0.5204293752826243  0.6985114218088035  1.0000
  Ti  Ti2       1.0  0.12266053429434397  0.9302361480384388  0.28799310942564077  1.0000
  Ba  Ba1       1.0  0.48987024821689235  0.027628904684170147  0.7958114489929409  1.0000
  Ba  Ba2       1.0  0.4895242808266442  0.4231905294259391  0.19054062712342973  1.0000
  O   O1        1.0  0.6683520780506367  0.37330005771310626  0.575326777531738  1.0000
  O   O2        1.0  0.3113654449256564  0.07736951690835064  0.4109944761100595  1.0000
  O   O3        1.0  0.08398795464127523  0.287823779081111  0.9307850276627977  1.0000
  O   O4        1.0  0.30947366453296604  0.807239758214332  0.14040440848833263  1.0000
  O   O5        1.0  0.8952918030891811  0.16285606868696606  0.05585183102122904  1.0000
  O   O6        1.0  0.669754131540988  0.6435403992525228  0.8458508905192388  1.0000
  O   O7        1.0  0.9900070054570973  0.7252497272255051  0.49336599112068075  1.0000
