data_image0
_chemical_formula_structural       BaTiBaO6Ti2O
_chemical_formula_sum              "Ba2 Ti3 O7"
_cell_length_a       3.9394828764382455
_cell_length_b       4.043708961715903
_cell_length_c       10.56350326538086
_cell_angle_alpha    100.94572196224534
_cell_angle_beta     90.0176790342736
_cell_angle_gamma    90.01641545002835

_space_group_name_H-M_alt    "P 1"
_space_group_IT_number       1

loop_
  _space_group_symop_operation_xyz
  'x, y, z'

loop_
  _atom_site_type_symbol
  _atom_site_label
  _atom_site_symmetry_multiplicity
  _atom_site_fract_x
  _atom_site_fract_y
  _atom_site_fract_z
  _atom_site_occupancy
  Ba  Ba1       1.0  0.11391247241430802  0.5070253696339209  0.7482421647664996  1.0000
  Ti  Ti1       1.0  0.6137039688853543  0.31051570351523883  0.35200891191455674  1.0000
  Ba  Ba2       1.0  0.11348731207651946  0.705463676625438  0.14287880704862918  1.0000
  O   O1        1.0  0.613819943018894  0.8144884725764364  0.3598121154245375  1.0000
  O   O2        1.0  0.6133675955373832  0.22068792050730485  0.1714469305554904  1.0000
  O   O3        1.0  0.11336422522468804  0.11974660898989652  0.9612022450902437  1.0000
  O   O4        1.0  0.6137793373471245  0.4070238292539339  0.5453967764569531  1.0000
  O   O5        1.0  0.11344402570537147  0.9190927312874491  0.5696817451922519  1.0000
  O   O6        1.0  0.6133149866430551  0.6200359853938603  0.9564648330513595  1.0000
  Ti  Ti2       1.0  0.6136263232280839  0.09893711353836117  0.9435596197767372  1.0000
  Ti  Ti3       1.0  0.6147865041510338  0.9125015601804164  0.5564190093857405  1.0000
  O   O7        1.0  0.6136720841372508  0.016020821455138893  0.7618707486948014  1.0000
