data_image0
_chemical_formula_structural       TiBaTiO5
_chemical_formula_sum              "Ti2 Ba1 O5"
_cell_length_a       5.219270181871018
_cell_length_b       5.215420009441393
_cell_length_c       5.535943508148193
_cell_angle_alpha    90.04586039417107
_cell_angle_beta     89.9767593712994
_cell_angle_gamma    116.77255898474401

_space_group_name_H-M_alt    "P 1"
_space_group_IT_number       1

loop_
  _space_group_symop_operation_xyz
  'x, y, z'

loop_
  _atom_site_type_symbol
  _atom_site_label
  _atom_site_symmetry_multiplicity
  _atom_site_fract_x
  _atom_site_fract_y
  _atom_site_fract_z
  _atom_site_occupancy
  Ti  Ti1       1.0  0.5813701492605695  0.8416477024424087  0.8932365493070059  1.0000
  Ba  Ba1       1.0  0.28219915971686305  0.1413681190115395  0.3933578010840014  1.0000
  Ti  Ti2       1.0  0.9826122060123811  0.4404362370960099  0.8933875774747456  1.0000
  O   O1        1.0  0.7811552947797261  0.14125712335961904  0.12338167572707985  1.0000
  O   O2        1.0  0.2821727303787667  0.6408855927304086  0.663293909908213  1.0000
  O   O3        1.0  0.2820211968795302  0.6406421291209874  0.1233710105324979  1.0000
  O   O4        1.0  0.7820083125025105  0.1410440014223821  0.6632593341175704  1.0000
  O   O5        1.0  0.7824482347090557  0.6413963402010368  0.8932696208185265  1.0000
