data_image0
_chemical_formula_structural       BaTiO3
_chemical_formula_sum              "Ba1 Ti1 O3"
_cell_length_a       4.082878795298003
_cell_length_b       4.094211215706466
_cell_length_c       4.091195106506348
_cell_angle_alpha    89.95861838842677
_cell_angle_beta     90.03312892334118
_cell_angle_gamma    89.47077899387695

_space_group_name_H-M_alt    "P 1"
_space_group_IT_number       1

loop_
  _space_group_symop_operation_xyz
  'x, y, z'

loop_
  _atom_site_type_symbol
  _atom_site_label
  _atom_site_symmetry_multiplicity
  _atom_site_fract_x
  _atom_site_fract_y
  _atom_site_fract_z
  _atom_site_occupancy
  Ba  Ba1       1.0  0.3047059490830932  0.7647068198579712  0.11246285180419967  1.0000
  Ti  Ti1       1.0  0.819891942951504  0.28055715881129695  0.5972260935082597  1.0000
  O   O1        1.0  0.7891245009713742  0.7356561664117292  0.6285164660042686  1.0000
  O   O2        1.0  0.2770933294316726  0.24847642091438474  0.6287336902513176  1.0000
  O   O3        1.0  0.7889538633209718  0.24857991708923333  0.1416494224602012  1.0000
