data_image0
_chemical_formula_structural       Ba3O5Ti
_chemical_formula_sum              "Ba3 O5 Ti1"
_cell_length_a       3.9733195404467847
_cell_length_b       6.182366605206257
_cell_length_c       7.307698249816894
_cell_angle_alpha    115.00471536814955
_cell_angle_beta     105.75378559515372
_cell_angle_gamma    89.97613787583315

_space_group_name_H-M_alt    "P 1"
_space_group_IT_number       1

loop_
  _space_group_symop_operation_xyz
  'x, y, z'

loop_
  _atom_site_type_symbol
  _atom_site_label
  _atom_site_symmetry_multiplicity
  _atom_site_fract_x
  _atom_site_fract_y
  _atom_site_fract_z
  _atom_site_occupancy
  Ba  Ba1       1.0  0.624047667326264  0.35996347129306666  0.22850141877111957  1.0000
  Ba  Ba2       1.0  0.8350024198843519  0.07123202801116679  0.6509233483827938  1.0000
  Ba  Ba3       1.0  0.04647522009113837  0.7824248578309527  0.07328375197573603  1.0000
  O   O1        1.0  0.4513003808541096  0.4590444170797799  0.8828002223421878  1.0000
  O   O2        1.0  0.2193221358148691  0.22707287449475874  0.41934128513602553  1.0000
  O   O3        1.0  0.4511003068904868  0.9149685278363316  0.8826131094428475  1.0000
  O   O4        1.0  0.8351208986081912  0.5711048786304282  0.6508535241365445  1.0000
  O   O5        1.0  0.21904345364889763  0.682906544008489  0.4189007910503375  1.0000
  Ti  Ti1       1.0  0.3351748801106587  0.5708910172708225  0.6508033298596947  1.0000
