data_image0
_chemical_formula_structural       BaO2TiO2
_chemical_formula_sum              "Ba1 O4 Ti1"
_cell_length_a       3.9023797966405493
_cell_length_b       3.912498561975334
_cell_length_c       5.414031505584717
_cell_angle_alpha    90.05047760526637
_cell_angle_beta     89.95437000811701
_cell_angle_gamma    90.02918107278055

_space_group_name_H-M_alt    "P 1"
_space_group_IT_number       1

loop_
  _space_group_symop_operation_xyz
  'x, y, z'

loop_
  _atom_site_type_symbol
  _atom_site_label
  _atom_site_symmetry_multiplicity
  _atom_site_fract_x
  _atom_site_fract_y
  _atom_site_fract_z
  _atom_site_occupancy
  Ba  Ba1       1.0  0.49595095712870807  0.7013129168841188  0.5365038803772493  1.0000
  O   O1        1.0  0.9922883695891553  0.025332154185254953  0.7753206980385203  1.0000
  O   O2        1.0  0.9892094096590712  0.6886582237975513  0.18763672957640745  1.0000
  Ti  Ti1       1.0  0.016728227566931597  0.1496932787532343  0.12344821040149964  1.0000
  O   O3        1.0  0.9944495077483063  0.24589558247747556  0.5561625803448182  1.0000
  O   O4        1.0  0.48448924732930554  0.19480673750232022  0.1564233078390782  1.0000
