data_image0
_chemical_formula_structural       O2BaTiO2BaOTiO
_chemical_formula_sum              "O6 Ba2 Ti2"
_cell_length_a       5.640534332090867
_cell_length_b       5.6421026495118705
_cell_length_c       5.8902130126953125
_cell_angle_alpha    118.55472067639435
_cell_angle_beta     118.55758895548568
_cell_angle_gamma    89.8753854484303

_space_group_name_H-M_alt    "P 1"
_space_group_IT_number       1

loop_
  _space_group_symop_operation_xyz
  'x, y, z'

loop_
  _atom_site_type_symbol
  _atom_site_label
  _atom_site_symmetry_multiplicity
  _atom_site_fract_x
  _atom_site_fract_y
  _atom_site_fract_z
  _atom_site_occupancy
  O   O1        1.0  0.8982358291301461  0.29250568215695505  0.7117111804114984  1.0000
  O   O2        1.0  0.3876254984337733  0.2830830383908315  0.18423133220594665  1.0000
  Ba  Ba1       1.0  0.42289245866559116  0.8188910483801256  0.2502507507331018  1.0000
  Ti  Ti1       1.0  0.18591846892695318  0.08324376756493992  0.7673959365370582  1.0000
  O   O3        1.0  0.39819386159050824  0.792456058350915  0.7116361599942712  1.0000
  O   O4        1.0  0.8877189945834562  0.7832642139725413  0.18437298649672665  1.0000
  Ba  Ba2       1.0  0.9228933617493962  0.31890430837678846  0.2502494540902963  1.0000
  O   O5        1.0  0.39684245205740654  0.29158648841786916  0.7123470812290283  1.0000
  Ti  Ti2       1.0  0.6859467110534819  0.5832743558907251  0.7675324165168358  1.0000
  O   O6        1.0  0.8968063895966563  0.791568444198632  0.7122482929183845  1.0000
