data_image0
_chemical_formula_structural       BaTi2O4BaO2
_chemical_formula_sum              "Ba2 Ti2 O6"
_cell_length_a       4.240571529318226
_cell_length_b       5.661370910249937
_cell_length_c       5.660407066345215
_cell_angle_alpha    90.02709103257966
_cell_angle_beta     89.92284184983754
_cell_angle_gamma    89.94568883789235

_space_group_name_H-M_alt    "P 1"
_space_group_IT_number       1

loop_
  _space_group_symop_operation_xyz
  'x, y, z'

loop_
  _atom_site_type_symbol
  _atom_site_label
  _atom_site_symmetry_multiplicity
  _atom_site_fract_x
  _atom_site_fract_y
  _atom_site_fract_z
  _atom_site_occupancy
  Ba  Ba1       1.0  0.739993529949109  0.9196534122064929  0.5025306320417325  1.0000
  Ti  Ti1       1.0  0.25880749596479763  0.41877648979285775  0.502420076611678  1.0000
  Ti  Ti2       1.0  0.25885418213046557  0.9187696774309746  0.002396292323366679  1.0000
  O   O1        1.0  0.21058467719547777  0.17112226589234017  0.7530879206194118  1.0000
  O   O2        1.0  0.6874978884105477  0.4197969225709219  0.5025676079685193  1.0000
  O   O3        1.0  0.210614856512313  0.6697443431313759  0.2518183298620108  1.0000
  O   O4        1.0  0.6875599040832587  0.9199256758824166  0.0025029710652720973  1.0000
  Ba  Ba2       1.0  0.7400439395706667  0.4195660614778576  0.0026014293118782022  1.0000
  O   O5        1.0  0.21050075401615734  0.6711025218234751  0.7523032801433136  1.0000
  O   O6        1.0  0.21043682285321053  0.16977420165010693  0.2534990489622806  1.0000
