data_image0
_chemical_formula_structural       OBaO4BaTiBaOTiOBa2O2
_chemical_formula_sum              "O9 Ba5 Ti2"
_cell_length_a       3.8652279902767592
_cell_length_b       5.38423279347875
_cell_length_c       14.512324333190916
_cell_angle_alpha    101.16010793613412
_cell_angle_beta     89.99054952287159
_cell_angle_gamma    90.06986167724487

_space_group_name_H-M_alt    "P 1"
_space_group_IT_number       1

loop_
  _space_group_symop_operation_xyz
  'x, y, z'

loop_
  _atom_site_type_symbol
  _atom_site_label
  _atom_site_symmetry_multiplicity
  _atom_site_fract_x
  _atom_site_fract_y
  _atom_site_fract_z
  _atom_site_occupancy
  O   O1        1.0  0.21694977171412883  0.7166755926440415  0.6132978221973822  1.0000
  Ba  Ba1       1.0  0.2153854289757282  0.7155616700920084  0.076248870239518  1.0000
  O   O2        1.0  0.714843199889681  0.9864679664190785  0.20699943028465462  1.0000
  O   O3        1.0  0.21458072003372455  0.11549411612616071  0.5106729568700566  1.0000
  O   O4        1.0  0.7135890298258349  0.1862044603850829  0.6525376939408536  1.0000
  O   O5        1.0  0.2147644739015853  0.41434503434478376  0.20693607493223862  1.0000
  Ba  Ba2       1.0  0.7145788090848803  0.1727460345233563  0.9025296046247826  1.0000
  Ti  Ti1       1.0  0.21823486921261115  0.055904978861587205  0.6359185438522175  1.0000
  Ba  Ba3       1.0  0.21525827957645272  0.8545158776446266  0.33141625482668435  1.0000
  O   O6        1.0  0.21418340739517833  0.10888170288943674  0.7809356919853166  1.0000
  Ti  Ti2       1.0  0.7152106718157606  0.32994753860298637  0.2074962061725844  1.0000
  O   O7        1.0  0.7146923026396117  0.3810811730491361  0.07945071211830224  1.0000
  Ba  Ba4       1.0  0.7159432189710686  0.45322966135593173  0.5121906840472796  1.0000
  Ba  Ba5       1.0  0.21470152319315777  0.6080095029904719  0.7809518039901302  1.0000
  O   O8        1.0  0.7148728997086788  0.6841189533351993  0.9066447360703934  1.0000
  O   O9        1.0  0.7147196382192466  0.5252351110362429  0.3369854149624141  1.0000
