data_image0
_chemical_formula_structural       BaTiO2BaTiO4
_chemical_formula_sum              "Ba2 Ti2 O6"
_cell_length_a       4.2802992031890525
_cell_length_b       5.661328886363849
_cell_length_c       5.661346435546875
_cell_angle_alpha    89.90832770303781
_cell_angle_beta     89.91870959198565
_cell_angle_gamma    89.90364902104153

_space_group_name_H-M_alt    "P 1"
_space_group_IT_number       1

loop_
  _space_group_symop_operation_xyz
  'x, y, z'

loop_
  _atom_site_type_symbol
  _atom_site_label
  _atom_site_symmetry_multiplicity
  _atom_site_fract_x
  _atom_site_fract_y
  _atom_site_fract_z
  _atom_site_occupancy
  Ba  Ba1       1.0  0.0021025883561199468  0.14070704533953435  0.3829527724037384  1.0000
  Ti  Ti1       1.0  0.5206301703910338  0.1449451623162765  0.8888564613882649  1.0000
  O   O1        1.0  0.9452991666616487  0.637752044469929  0.37934156915156614  1.0000
  O   O2        1.0  0.46986973506735197  0.8826154410020023  0.6234762511697653  1.0000
  Ba  Ba2       1.0  0.0021270585171936623  0.6407075548308142  0.8829442257896262  1.0000
  Ti  Ti2       1.0  0.5205823307885669  0.64494223593144  0.3888431540481471  1.0000
  O   O3        1.0  0.46962388497345364  0.8846376617571666  0.12474749371717173  1.0000
  O   O4        1.0  0.9452576009793644  0.13775499019717122  0.8793496483123643  1.0000
  O   O5        1.0  0.4696218624333933  0.38466991344264745  0.6247742276005258  1.0000
  O   O6        1.0  0.46986553369468814  0.3825972348364564  0.12350287739216487  1.0000
