data_image0
_chemical_formula_structural       OBaTiBa2TiO3Ba2O2TiOTiO4
_chemical_formula_sum              "O11 Ba5 Ti4"
_cell_length_a       6.243211724472366
_cell_length_b       7.11482176808865
_cell_length_c       10.606943130493166
_cell_angle_alpha    73.2187724149547
_cell_angle_beta     69.33518852862149
_cell_angle_gamma    63.40072365865632

_space_group_name_H-M_alt    "P 1"
_space_group_IT_number       1

loop_
  _space_group_symop_operation_xyz
  'x, y, z'

loop_
  _atom_site_type_symbol
  _atom_site_label
  _atom_site_symmetry_multiplicity
  _atom_site_fract_x
  _atom_site_fract_y
  _atom_site_fract_z
  _atom_site_occupancy
  O   O1        1.0  0.48755577114588255  0.7968366402601289  0.6562594860442766  1.0000
  Ba  Ba1       1.0  0.5154587945641936  0.9401773963444858  0.38815790761722774  1.0000
  Ti  Ti1       1.0  0.0847656364868999  0.4025088485116734  0.7730896995084976  1.0000
  Ba  Ba2       1.0  0.19739505372617586  0.6003639536983159  0.4190731090880906  1.0000
  Ba  Ba3       1.0  0.0748952236942533  0.8497069747980289  0.9336497430190525  1.0000
  Ti  Ti2       1.0  0.8792120895031516  0.27708634058250037  0.3639183375636333  1.0000
  O   O2        1.0  0.027470141890317507  0.014949981290923174  0.4578880387360142  1.0000
  O   O3        1.0  0.08438153931364721  0.27927284425467547  0.18442124200110963  1.0000
  O   O4        1.0  0.79698614770356  0.507900075178944  0.44961458629060336  1.0000
  Ba  Ba4       1.0  0.6899367116759052  0.9996118202633957  0.7093934757360296  1.0000
  Ba  Ba5       1.0  0.6498210531417535  0.41339308602702873  0.06788093487193086  1.0000
  O   O5        1.0  0.29419148172788084  0.8003067624102795  0.1438331891753437  1.0000
  O   O6        1.0  0.6000862162639534  0.28273477806747166  0.33825808255226186  1.0000
  Ti  Ti3       1.0  0.32125080699436015  0.06027028761719361  0.08039941793869387  1.0000
  O   O7        1.0  0.3903753619797652  0.41335135381786786  0.6532495003894633  1.0000
  Ti  Ti4       1.0  0.650013466737308  0.5089644671419071  0.6623663536710919  1.0000
  O   O8        1.0  0.8298458469704895  0.284157958711017  0.7927124077438026  1.0000
  O   O9        1.0  0.25081304701145973  0.14413046231330207  0.9100708566845848  1.0000
  O   O10       1.0  0.9027580290397118  0.6261377382099311  0.8684585109662387  1.0000
  O   O11       1.0  0.6203580026227186  0.03373467402381518  0.09082058283017548  1.0000
