data_image0
_chemical_formula_structural       TiBaOBaOTiO4
_chemical_formula_sum              "Ti2 Ba2 O6"
_cell_length_a       4.204056264624783
_cell_length_b       5.66586808971484
_cell_length_c       5.666130542755127
_cell_angle_alpha    90.04457632174936
_cell_angle_beta     90.00160759902444
_cell_angle_gamma    90.0073039770824

_space_group_name_H-M_alt    "P 1"
_space_group_IT_number       1

loop_
  _space_group_symop_operation_xyz
  'x, y, z'

loop_
  _atom_site_type_symbol
  _atom_site_label
  _atom_site_symmetry_multiplicity
  _atom_site_fract_x
  _atom_site_fract_y
  _atom_site_fract_z
  _atom_site_occupancy
  Ti  Ti1       1.0  0.7681365778578555  0.6590139299522056  0.7793609264850487  1.0000
  Ba  Ba1       1.0  0.28729521759739385  0.6581284373925168  0.2795196594224094  1.0000
  O   O1        1.0  0.33450843254247203  0.6578090392264635  0.7796279458549299  1.0000
  Ba  Ba2       1.0  0.287324606188849  0.15814902074534112  0.7795639173622821  1.0000
  O   O2        1.0  0.8136763097678454  0.9073174911886625  0.5299356793727517  1.0000
  Ti  Ti2       1.0  0.7681883100179574  0.15897737549935734  0.2793998966535765  1.0000
  O   O3        1.0  0.813870053719956  0.40736048818764875  0.5295217833439813  1.0000
  O   O4        1.0  0.813722839416466  0.4072713871310327  0.029883505670999545  1.0000
  O   O5        1.0  0.33456233753033576  0.15772385820538873  0.27963247247546347  1.0000
  O   O6        1.0  0.8139628084290249  0.9073592468170625  0.029514606070909943  1.0000
