data_image0
_chemical_formula_structural       OTiO
_chemical_formula_sum              "O2 Ti1"
_cell_length_a       2.9983042268780213
_cell_length_b       2.9994034873426307
_cell_length_c       5.773193359375
_cell_angle_alpha    75.43152260336063
_cell_angle_beta     75.36502308253746
_cell_angle_gamma    59.97105497187036

_space_group_name_H-M_alt    "P 1"
_space_group_IT_number       1

loop_
  _space_group_symop_operation_xyz
  'x, y, z'

loop_
  _atom_site_type_symbol
  _atom_site_label
  _atom_site_symmetry_multiplicity
  _atom_site_fract_x
  _atom_site_fract_y
  _atom_site_fract_z
  _atom_site_occupancy
  O   O1        1.0  0.39074341814934205  0.2542908372928955  0.8585352694598238  1.0000
  Ti  Ti1       1.0  0.7812557078487503  0.6439065604433742  0.683619809471715  1.0000
  O   O2        1.0  0.1712337297374238  0.033236284613529704  0.5085708567061914  1.0000
