data_image0
_chemical_formula_structural       TiOBaOBaTiO3
_chemical_formula_sum              "Ti2 O5 Ba2"
_cell_length_a       5.646610702786827
_cell_length_b       5.654495202448939
_cell_length_c       6.580828666687012
_cell_angle_alpha    85.69367072791037
_cell_angle_beta     118.98812608765876
_cell_angle_gamma    121.36511606763264

_space_group_name_H-M_alt    "P 1"
_space_group_IT_number       1

loop_
  _space_group_symop_operation_xyz
  'x, y, z'

loop_
  _atom_site_type_symbol
  _atom_site_label
  _atom_site_symmetry_multiplicity
  _atom_site_fract_x
  _atom_site_fract_y
  _atom_site_fract_z
  _atom_site_occupancy
  Ti  Ti1       1.0  0.7722155745208559  0.5191309096156785  0.6292562849336009  1.0000
  O   O1        1.0  0.5732619285770998  0.708784612484842  0.6204510413241127  1.0000
  Ba  Ba1       1.0  0.3125287756569129  0.31506802234517645  0.9655655423312072  1.0000
  O   O2        1.0  0.4021264037024404  0.14673841151946543  0.37973997311512103  1.0000
  Ba  Ba2       1.0  0.833987471829093  0.10263093728523212  0.27485511922586164  1.0000
  Ti  Ti2       1.0  0.3743224218338332  0.8986536514031216  0.6112584098741519  1.0000
  O   O3        1.0  0.89550605672875  0.6398494967666032  0.37944935924536133  1.0000
  O   O4        1.0  0.744427811406692  0.27107531834333326  0.8608056342774564  1.0000
  O   O5        1.0  0.2508772849020376  0.7778386695738436  0.8610791554985499  1.0000
