data_image0
_chemical_formula_structural       BaO2BaTiO3TiO
_chemical_formula_sum              "Ba2 O6 Ti2"
_cell_length_a       4.274692690036504
_cell_length_b       5.642454178145208
_cell_length_c       5.640021324157715
_cell_angle_alpha    90.0973053759376
_cell_angle_beta     89.96885684030065
_cell_angle_gamma    90.01034341033038

_space_group_name_H-M_alt    "P 1"
_space_group_IT_number       1

loop_
  _space_group_symop_operation_xyz
  'x, y, z'

loop_
  _atom_site_type_symbol
  _atom_site_label
  _atom_site_symmetry_multiplicity
  _atom_site_fract_x
  _atom_site_fract_y
  _atom_site_fract_z
  _atom_site_occupancy
  Ba  Ba1       1.0  0.3526132616786481  0.8738902582601503  0.12566768205020748  1.0000
  O   O1        1.0  0.8853345123400761  0.6243938692386517  0.3760883105242602  1.0000
  O   O2        1.0  0.409257312127661  0.8741106061359386  0.625812103670535  1.0000
  Ba  Ba2       1.0  0.35260178369082634  0.3739313104350795  0.6256590119392247  1.0000
  Ti  Ti1       1.0  0.834004152449011  0.37349350561396805  0.12531511374279936  1.0000
  O   O3        1.0  0.40926212839679416  0.3739702283938489  0.12584445073638156  1.0000
  O   O4        1.0  0.8847991582705833  0.12426504660850085  0.3759430318571799  1.0000
  O   O5        1.0  0.8847406337299136  0.6242410934141491  0.875927232034385  1.0000
  Ti  Ti2       1.0  0.8340260046659899  0.8735387578836208  0.6253116338231622  1.0000
  O   O6        1.0  0.8853637177953102  0.12436822079834223  0.8761049658954073  1.0000
