data_image0
_chemical_formula_structural       TiOBaTiO2TiO2TiO3
_chemical_formula_sum              "Ti4 O8 Ba1"
_cell_length_a       5.918478589112064
_cell_length_b       5.920205712038547
_cell_length_c       7.292644023895264
_cell_angle_alpha    66.21875071873737
_cell_angle_beta     66.29917769702173
_cell_angle_gamma    60.25940619482137

_space_group_name_H-M_alt    "P 1"
_space_group_IT_number       1

loop_
  _space_group_symop_operation_xyz
  'x, y, z'

loop_
  _atom_site_type_symbol
  _atom_site_label
  _atom_site_symmetry_multiplicity
  _atom_site_fract_x
  _atom_site_fract_y
  _atom_site_fract_z
  _atom_site_occupancy
  Ti  Ti1       1.0  0.2829762019877834  0.8075621432493548  0.5883423125777292  1.0000
  O   O1        1.0  0.06056392821120585  0.5877858812322195  0.7540247689183022  1.0000
  Ba  Ba1       1.0  0.7840555027121311  0.8069341797822452  0.08883781300049552  1.0000
  Ti  Ti2       1.0  0.782962196125332  0.30744135218550217  0.5889738871524675  1.0000
  O   O2        1.0  0.562818317487722  0.587319623155483  0.7494581060178501  1.0000
  O   O3        1.0  0.5055904324124375  0.5301300228127833  0.42361029391457067  1.0000
  Ti  Ti3       1.0  0.28311394594868394  0.3072551041001662  0.5889816648371573  1.0000
  O   O4        1.0  0.002315377983330057  0.5303170177438646  0.42376912685049073  1.0000
  O   O5        1.0  0.5056090360704728  0.027067479097535457  0.42349131075235935  1.0000
  Ti  Ti4       1.0  0.7827934522905371  0.8074252874033477  0.5890271900102879  1.0000
  O   O6        1.0  0.002407313622314916  0.028010091429619344  0.4280769409695805  1.0000
  O   O7        1.0  0.06079605221884649  0.08425984532109182  0.7539271250186258  1.0000
  O   O8        1.0  0.5637986811232923  0.08434411128442532  0.7542903818348257  1.0000
