data_image0
_chemical_formula_structural       Ba3TiOBaOTiBaOBaO5
_chemical_formula_sum              "Ba6 Ti2 O8"
_cell_length_a       6.079139154681627
_cell_length_b       6.8274621251484655
_cell_length_c       8.657588005065918
_cell_angle_alpha    89.9802495964167
_cell_angle_beta     89.96924616090264
_cell_angle_gamma    90.06157665363781

_space_group_name_H-M_alt    "P 1"
_space_group_IT_number       1

loop_
  _space_group_symop_operation_xyz
  'x, y, z'

loop_
  _atom_site_type_symbol
  _atom_site_label
  _atom_site_symmetry_multiplicity
  _atom_site_fract_x
  _atom_site_fract_y
  _atom_site_fract_z
  _atom_site_occupancy
  Ba  Ba1       1.0  0.9260531161822889  0.7121076673532922  0.6277113190404017  1.0000
  Ba  Ba2       1.0  0.4259733739182049  0.74420922827107  0.36110743937310447  1.0000
  Ba  Ba3       1.0  0.4259364691046588  0.7447033461382181  0.8946464306165032  1.0000
  Ti  Ti1       1.0  0.9259463037108212  0.7500151682343773  0.12785692168124527  1.0000
  O   O1        1.0  0.4252356987491653  0.1161812673491757  0.440732328943756  1.0000
  Ba  Ba4       1.0  0.9264184770282136  0.24424040593382232  0.39469845881047827  1.0000
  O   O2        1.0  0.9262091407050953  0.616537177165663  0.940519496125837  1.0000
  Ti  Ti2       1.0  0.4258924016338312  0.2501190133929673  0.6278748833516646  1.0000
  Ba  Ba5       1.0  0.926659975488756  0.24473774491658323  0.8611192369902669  1.0000
  O   O3        1.0  0.17893409099331717  0.40462806690069414  0.6276447438577457  1.0000
  Ba  Ba6       1.0  0.4264419309258084  0.2119611548591633  0.12801865699023549  1.0000
  O   O4        1.0  0.6739946315399616  0.4035719022472782  0.6278794981171054  1.0000
  O   O5        1.0  0.4246399033010934  0.11653731166548509  0.815246948601363  1.0000
  O   O6        1.0  0.6783738138504586  0.9037831254390819  0.12792054396275127  1.0000
  O   O7        1.0  0.17343930468332522  0.9042189182201941  0.12796006125503487  1.0000
  O   O8        1.0  0.9258132191163292  0.6159099656727756  0.3149698789012597  1.0000
