data_image0
_chemical_formula_structural       TiBaO2
_chemical_formula_sum              "Ti1 Ba1 O2"
_cell_length_a       3.278170254402212
_cell_length_b       3.2823767283553895
_cell_length_c       6.4746809005737305
_cell_angle_alpha    75.30842171400533
_cell_angle_beta     75.31102432305528
_cell_angle_gamma    59.961793994337704

_space_group_name_H-M_alt    "P 1"
_space_group_IT_number       1

loop_
  _space_group_symop_operation_xyz
  'x, y, z'

loop_
  _atom_site_type_symbol
  _atom_site_label
  _atom_site_symmetry_multiplicity
  _atom_site_fract_x
  _atom_site_fract_y
  _atom_site_fract_z
  _atom_site_occupancy
  Ti  Ti1       1.0  0.7200052879530393  0.43972866063559685  0.7753542363498418  1.0000
  Ba  Ba1       1.0  0.5493745642285311  0.26956158782200695  0.2862431202325792  1.0000
  O   O1        1.0  0.1071069250379781  0.8269888079060556  0.6137496757414882  1.0000
  O   O2        1.0  0.3309905217373404  0.05051279209945546  0.9427167753147269  1.0000
