data_image0
_chemical_formula_structural       BaTiO2
_chemical_formula_sum              "Ba1 Ti1 O2"
_cell_length_a       4.052880266839994
_cell_length_b       4.059592658189132
_cell_length_c       6.714396476745606
_cell_angle_alpha    72.38043006973066
_cell_angle_beta     72.38616597762824
_cell_angle_gamma    60.12904331104814

_space_group_name_H-M_alt    "P 1"
_space_group_IT_number       1

loop_
  _space_group_symop_operation_xyz
  'x, y, z'

loop_
  _atom_site_type_symbol
  _atom_site_label
  _atom_site_symmetry_multiplicity
  _atom_site_fract_x
  _atom_site_fract_y
  _atom_site_fract_z
  _atom_site_occupancy
  Ba  Ba1       1.0  0.07307144898273424  0.7290784733454281  0.9863148894121984  1.0000
  Ti  Ti1       1.0  0.5709061595907872  0.22762992802653828  0.48633366314472215  1.0000
  O   O1        1.0  0.4755200419746716  0.13202713755534737  0.7789702336147383  1.0000
  O   O2        1.0  0.6707415271761988  0.3262163516702583  0.19369395190632796  1.0000
