data_image0
_chemical_formula_structural       BaTiO2
_chemical_formula_sum              "Ba1 Ti1 O2"
_cell_length_a       3.3147697395332147
_cell_length_b       3.3144276718356283
_cell_length_c       6.289082050323487
_cell_angle_alpha    74.76381734999222
_cell_angle_beta     74.74901627492612
_cell_angle_gamma    60.041624425771786

_space_group_name_H-M_alt    "P 1"
_space_group_IT_number       1

loop_
  _space_group_symop_operation_xyz
  'x, y, z'

loop_
  _atom_site_type_symbol
  _atom_site_label
  _atom_site_symmetry_multiplicity
  _atom_site_fract_x
  _atom_site_fract_y
  _atom_site_fract_z
  _atom_site_occupancy
  Ba  Ba1       1.0  0.5030909250141254  0.9148234465645013  0.5054685926161213  1.0000
  Ti  Ti1       1.0  0.0034301143571980495  0.4149456565669058  0.005380104020081764  1.0000
  O   O1        1.0  0.28149735740308435  0.6931134313998122  0.1707885213821563  1.0000
  O   O2        1.0  0.725126722566391  0.13669051330228257  0.8401005137831302  1.0000
