data_image0
_chemical_formula_structural       OBaOBaTiOBaOTiOTiOBaO5
_chemical_formula_sum              "O11 Ba4 Ti3"
_cell_length_a       4.011460345211337
_cell_length_b       4.010219187004797
_cell_length_c       17.767988204956055
_cell_angle_alpha    89.96953985882416
_cell_angle_beta     89.99181310767166
_cell_angle_gamma    89.95705427412354

_space_group_name_H-M_alt    "P 1"
_space_group_IT_number       1

loop_
  _space_group_symop_operation_xyz
  'x, y, z'

loop_
  _atom_site_type_symbol
  _atom_site_label
  _atom_site_symmetry_multiplicity
  _atom_site_fract_x
  _atom_site_fract_y
  _atom_site_fract_z
  _atom_site_occupancy
  O   O1        1.0  0.13102676232386115  0.4474344111891485  0.6185334458709701  1.0000
  Ba  Ba1       1.0  0.631447445260372  0.9478308526118874  0.08877295865556283  1.0000
  O   O2        1.0  0.6313477726209583  0.9481009293680783  0.22920844725986786  1.0000
  Ba  Ba2       1.0  0.6309774247272693  0.947383524956804  0.6104377628839923  1.0000
  Ti  Ti1       1.0  0.13054454954691141  0.44815501591112117  0.48771474251969643  1.0000
  O   O3        1.0  0.13117374828628353  0.44741925196761884  0.8403418773274713  1.0000
  Ba  Ba3       1.0  0.6310243681902746  0.9479930511145552  0.3695775044530019  1.0000
  O   O4        1.0  0.6309412091226795  0.4473143346534756  0.7294206814700609  1.0000
  Ti  Ti2       1.0  0.13127871247631415  0.44693191080149663  0.7293394144896214  1.0000
  O   O5        1.0  0.1310760847285917  0.947235781651825  0.4950599197310052  1.0000
  Ti  Ti3       1.0  0.13135048689654288  0.4478851347675277  0.9706633557803616  1.0000
  O   O6        1.0  0.13151210882939063  0.9474635206642565  0.9634138149070645  1.0000
  Ba  Ba4       1.0  0.6312825756896459  0.9474292733692286  0.8482079674601594  1.0000
  O   O7        1.0  0.6312523893672707  0.44740237926026577  0.49504402567320804  1.0000
  O   O8        1.0  0.1314662574217413  0.4474786464954962  0.07375658131840962  1.0000
  O   O9        1.0  0.1310754461093698  0.44777554001280845  0.384657059159012  1.0000
  O   O10       1.0  0.6315109291930979  0.4475608749526529  0.9634403335336642  1.0000
  O   O11       1.0  0.13096883886202837  0.9475130491420655  0.7294407587338645  1.0000
