data_image870
_chemical_formula_structural       Ba2OTiO2
_chemical_formula_sum              "Ba2 O3 Ti1"
_cell_length_a       3.9777112238885106
_cell_length_b       4.0485548153778534
_cell_length_c       7.377843379974365
_cell_angle_alpha    105.99646881722421
_cell_angle_beta     105.86537054259905
_cell_angle_gamma    90.09459376354694

_space_group_name_H-M_alt    "P 1"
_space_group_IT_number       1

loop_
  _space_group_symop_operation_xyz
  'x, y, z'

loop_
  _atom_site_type_symbol
  _atom_site_label
  _atom_site_symmetry_multiplicity
  _atom_site_fract_x
  _atom_site_fract_y
  _atom_site_fract_z
  _atom_site_occupancy
  Ba  Ba1       1.0  0.6470928114060495  0.27933849433346053  0.06311557700059008  1.0000
  Ba  Ba2       1.0  0.34582719922240024  0.9785600254017333  0.4623262343740761  1.0000
  O   O1        1.0  0.14058308271303097  0.7732517251798935  0.05030893824709802  1.0000
  Ti  Ti1       1.0  0.9964551515623826  0.6289623361713618  0.7627065767281475  1.0000
  O   O2        1.0  0.9964056287719947  0.12894433621323564  0.7626661678587899  1.0000
  O   O3        1.0  0.8523383760623466  0.4846580841232332  0.4750250374132771  1.0000
