data_image1027
_chemical_formula_structural       OTi2OBa2O2
_chemical_formula_sum              "O4 Ti2 Ba2"
_cell_length_a       3.24711417155303
_cell_length_b       3.2413555418397997
_cell_length_c       12.523251533508303
_cell_angle_alpha    89.97295495501655
_cell_angle_beta     90.0307246963597
_cell_angle_gamma    119.88654229777825

_space_group_name_H-M_alt    "P 1"
_space_group_IT_number       1

loop_
  _space_group_symop_operation_xyz
  'x, y, z'

loop_
  _atom_site_type_symbol
  _atom_site_label
  _atom_site_symmetry_multiplicity
  _atom_site_fract_x
  _atom_site_fract_y
  _atom_site_fract_z
  _atom_site_occupancy
  O   O1        1.0  0.25705062296150405  0.026202146788200282  0.680038389382619  1.0000
  Ti  Ti1       1.0  0.590772356466725  0.6929064704623703  0.5965199680728751  1.0000
  Ti  Ti2       1.0  0.2572530425124851  0.026491345782699103  0.09619019818776113  1.0000
  O   O2        1.0  0.9235837590194108  0.35989397452605143  0.014583971006021757  1.0000
  Ba  Ba1       1.0  0.590082063788434  0.6934423430926102  0.8506613418989536  1.0000
  Ba  Ba2       1.0  0.2574481189694742  0.026075644373429834  0.35065767324906827  1.0000
  O   O3        1.0  0.9242467150687149  0.35962285037642694  0.515075928637296  1.0000
  O   O4        1.0  0.5910245117585554  0.693123285470123  0.17951656882132228  1.0000
