data_image980
_chemical_formula_structural       BaTiO2
_chemical_formula_sum              "Ba1 Ti1 O2"
_cell_length_a       3.2948711700126143
_cell_length_b       3.29615599262001
_cell_length_c       6.272150516510009
_cell_angle_alpha    74.86422071733591
_cell_angle_beta     74.85515672509905
_cell_angle_gamma    60.15767520294471

_space_group_name_H-M_alt    "P 1"
_space_group_IT_number       1

loop_
  _space_group_symop_operation_xyz
  'x, y, z'

loop_
  _atom_site_type_symbol
  _atom_site_label
  _atom_site_symmetry_multiplicity
  _atom_site_fract_x
  _atom_site_fract_y
  _atom_site_fract_z
  _atom_site_occupancy
  Ba  Ba1       1.0  0.8779010156790439  0.6499227256719771  0.4186847127035366  1.0000
  Ti  Ti1       1.0  0.3780424718607142  0.15011851167053844  0.9186680846087084  1.0000
  O   O1        1.0  0.656106209390456  0.4281968948764263  0.08452569503489711  1.0000
  O   O2        1.0  0.09991775386980482  0.8719571098106899  0.7528413390963802  1.0000
