data_image614
_chemical_formula_structural       TiBaOBaTiO5
_chemical_formula_sum              "Ti2 Ba2 O6"
_cell_length_a       4.289834636506816
_cell_length_b       5.656604304761763
_cell_length_c       5.6604642868042
_cell_angle_alpha    89.9664731075782
_cell_angle_beta     89.89437362034906
_cell_angle_gamma    89.95204091770162

_space_group_name_H-M_alt    "P 1"
_space_group_IT_number       1

loop_
  _space_group_symop_operation_xyz
  'x, y, z'

loop_
  _atom_site_type_symbol
  _atom_site_label
  _atom_site_symmetry_multiplicity
  _atom_site_fract_x
  _atom_site_fract_y
  _atom_site_fract_z
  _atom_site_occupancy
  Ti  Ti1       1.0  0.7334459271184773  0.8000697409270092  0.42003198178245554  1.0000
  Ba  Ba1       1.0  0.21492859049076046  0.30054531960020536  0.41952418367486455  1.0000
  O   O1        1.0  0.15581355582151854  0.8006114664291761  0.41932296649894096  1.0000
  Ba  Ba2       1.0  0.2149175614569224  0.8005683555326739  0.919600388754042  1.0000
  Ti  Ti2       1.0  0.7334176620675746  0.30008254423796255  0.9199713832422195  1.0000
  O   O2        1.0  0.6817887798690843  0.5508856027755351  0.1693084776508484  1.0000
  O   O3        1.0  0.6815892282154243  0.051053205932705036  0.16905579047111793  1.0000
  O   O4        1.0  0.6818789002366653  0.0509686532745904  0.6692537205997717  1.0000
  O   O5        1.0  0.6816768671754021  0.5510708430504324  0.6690450739864989  1.0000
  O   O6        1.0  0.1557871135054663  0.3006299735551482  0.9191949373022242  1.0000
