data_image991
_chemical_formula_structural       Ba2O2BaOTiOTiO3
_chemical_formula_sum              "Ba3 O7 Ti2"
_cell_length_a       3.992677388240897
_cell_length_b       3.99678309522239
_cell_length_c       13.17909622192383
_cell_angle_alpha    89.73646650315017
_cell_angle_beta     90.17345515869474
_cell_angle_gamma    89.99780318345354

_space_group_name_H-M_alt    "P 1"
_space_group_IT_number       1

loop_
  _space_group_symop_operation_xyz
  'x, y, z'

loop_
  _atom_site_type_symbol
  _atom_site_label
  _atom_site_symmetry_multiplicity
  _atom_site_fract_x
  _atom_site_fract_y
  _atom_site_fract_z
  _atom_site_occupancy
  Ba  Ba1       1.0  0.39047137303999546  0.9594332962338934  0.2768327426507958  1.0000
  Ba  Ba2       1.0  0.38848972488983  0.9647767397282909  0.9715863609838568  1.0000
  O   O1        1.0  0.8899997850951961  0.96348849998103  0.12929471468187245  1.0000
  O   O2        1.0  0.8887111070029062  0.4652050582436445  0.9715985500892692  1.0000
  Ba  Ba3       1.0  0.3863999553499599  0.9699512254826022  0.6662158398156374  1.0000
  O   O3        1.0  0.887500591650751  0.9674487978925806  0.8138188368219141  1.0000
  Ti  Ti1       1.0  0.8886405816448161  0.4607149907706947  0.12974810518405924  1.0000
  O   O4        1.0  0.3903109530834604  0.4630476355063631  0.12929736757473348  1.0000
  Ti  Ti2       1.0  0.8877816742059264  0.46768513062776523  0.8134099467961754  1.0000
  O   O5        1.0  0.8913479061061517  0.46065678563245194  0.27684775677929924  1.0000
  O   O6        1.0  0.8861060738080554  0.4697673418296758  0.6662870022764241  1.0000
  O   O7        1.0  0.38738774790594416  0.46747552467656767  0.8138335472917407  1.0000
