data_image323
_chemical_formula_structural       BaTiO2BaOBaTiOBaO4
_chemical_formula_sum              "Ba4 Ti2 O8"
_cell_length_a       6.104401368343101
_cell_length_b       6.445626503596195
_cell_length_c       8.051535606384277
_cell_angle_alpha    89.89088340745944
_cell_angle_beta     89.96391861666251
_cell_angle_gamma    58.58079944455373

_space_group_name_H-M_alt    "P 1"
_space_group_IT_number       1

loop_
  _space_group_symop_operation_xyz
  'x, y, z'

loop_
  _atom_site_type_symbol
  _atom_site_label
  _atom_site_symmetry_multiplicity
  _atom_site_fract_x
  _atom_site_fract_y
  _atom_site_fract_z
  _atom_site_occupancy
  Ba  Ba1       1.0  0.7289065272110535  0.4031183647728313  0.7470495493763187  1.0000
  Ti  Ti1       1.0  0.025956690189192055  0.7296919126100436  0.9969507447890207  1.0000
  O   O1        1.0  0.23148888893578076  0.07259700998067703  0.31603326747730015  1.0000
  O   O2        1.0  0.6863161972298758  0.7005328829684968  0.49692794339826285  1.0000
  Ba  Ba2       1.0  0.7288114426295333  0.4032463717983388  0.24712974358001663  1.0000
  O   O3        1.0  0.766116139811884  0.6613430557690355  0.9968515273867277  1.0000
  Ba  Ba3       1.0  0.09643378859684895  0.744042576975571  0.4968990561759833  1.0000
  Ti  Ti2       1.0  0.4311976031251126  0.027579545420492728  0.4970106264220953  1.0000
  O   O4        1.0  0.6052674119817745  0.1934795633184651  0.49703524249604136  1.0000
  Ba  Ba4       1.0  0.35979511010897414  0.11021658219277887  0.996978312056614  1.0000
  O   O5        1.0  0.23171727195292893  0.0725352047639848  0.6780736246785682  1.0000
  O   O6        1.0  0.8577099048588248  0.06766730388727187  0.9970438849836458  1.0000
  O   O7        1.0  0.2241859770160457  0.5754397304011684  0.17835568135074392  1.0000
  O   O8        1.0  0.2242606369391882  0.5754841641377525  0.8157580113040557  1.0000
