data_image142
_chemical_formula_structural       TiO2BaO
_chemical_formula_sum              "Ti1 O3 Ba1"
_cell_length_a       4.0755461122594445
_cell_length_b       4.090270774830209
_cell_length_c       4.082381248474121
_cell_angle_alpha    90.35271350177425
_cell_angle_beta     90.37969951712672
_cell_angle_gamma    89.68989825211185

_space_group_name_H-M_alt    "P 1"
_space_group_IT_number       1

loop_
  _space_group_symop_operation_xyz
  'x, y, z'

loop_
  _atom_site_type_symbol
  _atom_site_label
  _atom_site_symmetry_multiplicity
  _atom_site_fract_x
  _atom_site_fract_y
  _atom_site_fract_z
  _atom_site_occupancy
  Ti  Ti1       1.0  0.611005256133199  0.4277216375153407  0.07809128439086502  1.0000
  O   O1        1.0  0.5805680169587506  0.8834171596295485  0.10912822283285693  1.0000
  O   O2        1.0  0.5806116760065736  0.3962104610953519  0.6212140591563965  1.0000
  Ba  Ba1       1.0  0.09636717886904513  0.9121785899940907  0.5929242390327697  1.0000
  O   O3        1.0  0.0692991921656554  0.3953530175426228  0.10990688182955649  1.0000
