data_image403
_chemical_formula_structural       Ba2O2TiBaTiO4
_chemical_formula_sum              "Ba3 O6 Ti2"
_cell_length_a       4.039651860767257
_cell_length_b       4.032607107735806
_cell_length_c       11.249122619628906
_cell_angle_alpha    100.28805705861693
_cell_angle_beta     100.34432415543314
_cell_angle_gamma    89.99811061819415

_space_group_name_H-M_alt    "P 1"
_space_group_IT_number       1

loop_
  _space_group_symop_operation_xyz
  'x, y, z'

loop_
  _atom_site_type_symbol
  _atom_site_label
  _atom_site_symmetry_multiplicity
  _atom_site_fract_x
  _atom_site_fract_y
  _atom_site_fract_z
  _atom_site_occupancy
  Ba  Ba1       1.0  0.8683831081843093  0.7853704158251517  0.36636412744034574  1.0000
  Ba  Ba2       1.0  0.6900104268921321  0.6072451805354102  0.009642213558005095  1.0000
  O   O1        1.0  0.7782828313140724  0.19544774009735844  0.18618653999092455  1.0000
  O   O2        1.0  0.37548976046929916  0.2924776039665785  0.3805306724049162  1.0000
  Ti  Ti1       1.0  0.4653427645247411  0.3822586381478535  0.5602883275695357  1.0000
  Ba  Ba3       1.0  0.05942832879785863  0.9762994166521629  0.7484303193846946  1.0000
  Ti  Ti2       1.0  0.2764951700401026  0.19363367542753626  0.18255937735584846  1.0000
  O   O3        1.0  0.18553742519150274  0.10297944847546883  0.0006706317084472779  1.0000
  O   O4        1.0  0.4661712016058301  0.8830409515227546  0.561943050381743  1.0000
  O   O5        1.0  0.555250377190618  0.4719151650535129  0.7400973863019246  1.0000
  O   O6        1.0  0.2777219388018112  0.6948896665246631  0.18504202893666485  1.0000
