data_image730
_chemical_formula_structural       OBa2OBaOTiO
_chemical_formula_sum              "O4 Ba3 Ti1"
_cell_length_a       5.65444433372109
_cell_length_b       5.654113004207314
_cell_length_c       6.989057540893555
_cell_angle_alpha    113.72691009199225
_cell_angle_beta     113.76304149102306
_cell_angle_gamma    90.00337052573298

_space_group_name_H-M_alt    "P 1"
_space_group_IT_number       1

loop_
  _space_group_symop_operation_xyz
  'x, y, z'

loop_
  _atom_site_type_symbol
  _atom_site_label
  _atom_site_symmetry_multiplicity
  _atom_site_fract_x
  _atom_site_fract_y
  _atom_site_fract_z
  _atom_site_occupancy
  O   O1        1.0  0.43298917596578934  0.9206860996979143  0.8352264770843297  1.0000
  Ba  Ba1       1.0  0.5855984326080131  0.9547619722895221  0.5212606470718517  1.0000
  Ba  Ba2       1.0  0.8355658618628473  0.7047157731608302  0.021233054698138066  1.0000
  O   O2        1.0  0.23735907634911757  0.10674344740027976  0.2077149951561882  1.0000
  Ba  Ba3       1.0  0.08556447640870499  0.4548362796938453  0.5213679043654699  1.0000
  O   O3        1.0  0.6189087976440533  0.48808937019534426  0.20672219642632508  1.0000
  Ti  Ti1       1.0  0.335255888960339  0.2044785273398332  0.021230909031335662  1.0000
  O   O4        1.0  0.05125032725115942  0.3022124547958371  0.83512129948665  1.0000
