data_image1075
_chemical_formula_structural       Ba3O2Ti2O2BaO2
_chemical_formula_sum              "Ba4 O6 Ti2"
_cell_length_a       4.047177832617558
_cell_length_b       4.0444064212268325
_cell_length_c       14.481186866760252
_cell_angle_alpha    90.00341759898566
_cell_angle_beta     90.00815775056215
_cell_angle_gamma    90.05518360111995

_space_group_name_H-M_alt    "P 1"
_space_group_IT_number       1

loop_
  _space_group_symop_operation_xyz
  'x, y, z'

loop_
  _atom_site_type_symbol
  _atom_site_label
  _atom_site_symmetry_multiplicity
  _atom_site_fract_x
  _atom_site_fract_y
  _atom_site_fract_z
  _atom_site_occupancy
  Ba  Ba1       1.0  0.729255648491061  0.9108942965059849  0.2936010686094281  1.0000
  Ba  Ba2       1.0  0.7293216071805133  0.9108351713457472  0.5639351229172553  1.0000
  Ba  Ba3       1.0  0.7293637182636609  0.9108031167457413  0.8436248502144978  1.0000
  O   O1        1.0  0.22933321874890145  0.41084750329833375  0.5665142651904419  1.0000
  O   O2        1.0  0.7292928789961013  0.4108783455437561  0.42280034463401533  1.0000
  Ti  Ti1       1.0  0.22929955781004588  0.41088331176860265  0.4185112384765813  1.0000
  Ti  Ti2       1.0  0.22935284261385122  0.4107989816570488  0.6980897046071164  1.0000
  O   O3        1.0  0.22923826535751823  0.4108642145153675  0.2843929605372201  1.0000
  O   O4        1.0  0.7293762609259222  0.4107951080892886  0.7139744364619331  1.0000
  Ba  Ba4       1.0  0.229311721491081  0.41097249954363246  0.08145253816511806  1.0000
  O   O5        1.0  0.22935655327226778  0.9108071827835338  0.7140266888764808  1.0000
  O   O6        1.0  0.22930057899461842  0.9108659758915938  0.4228269828363131  1.0000
