data_image417
_chemical_formula_structural       BaTiO2
_chemical_formula_sum              "Ba1 Ti1 O2"
_cell_length_a       3.297054578514939
_cell_length_b       3.298081683141682
_cell_length_c       6.3127737045288095
_cell_angle_alpha    74.90938883829207
_cell_angle_beta     74.87837816141271
_cell_angle_gamma    60.05907760003289

_space_group_name_H-M_alt    "P 1"
_space_group_IT_number       1

loop_
  _space_group_symop_operation_xyz
  'x, y, z'

loop_
  _atom_site_type_symbol
  _atom_site_label
  _atom_site_symmetry_multiplicity
  _atom_site_fract_x
  _atom_site_fract_y
  _atom_site_fract_z
  _atom_site_occupancy
  Ba  Ba1       1.0  0.3779312040736563  0.9600246441288773  0.6756391484453316  1.0000
  Ti  Ti1       1.0  0.8779139395326734  0.4600468865008102  0.17557274155669877  1.0000
  O   O1        1.0  0.15598212458404506  0.7380788575646384  0.34163644984964586  1.0000
  O   O2        1.0  0.5999614622022219  0.18185603702593056  0.009633686199940058  1.0000
