data_image786
_chemical_formula_structural       BaTiO3
_chemical_formula_sum              "Ba1 Ti1 O3"
_cell_length_a       4.084811665583398
_cell_length_b       4.089538684751151
_cell_length_c       4.09495210647583
_cell_angle_alpha    90.24937269872278
_cell_angle_beta     90.20708700953028
_cell_angle_gamma    89.68196838597437

_space_group_name_H-M_alt    "P 1"
_space_group_IT_number       1

loop_
  _space_group_symop_operation_xyz
  'x, y, z'

loop_
  _atom_site_type_symbol
  _atom_site_label
  _atom_site_symmetry_multiplicity
  _atom_site_fract_x
  _atom_site_fract_y
  _atom_site_fract_z
  _atom_site_occupancy
  Ba  Ba1       1.0  0.2455762432398202  0.25580834504964756  0.3587794691352332  1.0000
  Ti  Ti1       1.0  0.7306232716347598  0.7406512703690838  0.8742669282627245  1.0000
  O   O1        1.0  0.27381383271741533  0.7728232594632248  0.8417689758231581  1.0000
  O   O2        1.0  0.7617799198049415  0.2848185569363796  0.8422419779186018  1.0000
  O   O3        1.0  0.7616193929567201  0.7720854930500599  0.32915754446001066  1.0000
