data_image863
_chemical_formula_structural       Ba4OTiO5BaO3
_chemical_formula_sum              "Ba5 O9 Ti1"
_cell_length_a       6.519439110529512
_cell_length_b       6.50310409654472
_cell_length_c       7.990994453430177
_cell_angle_alpha    91.57597299471438
_cell_angle_beta     89.51850834927389
_cell_angle_gamma    120.38066327969337

_space_group_name_H-M_alt    "P 1"
_space_group_IT_number       1

loop_
  _space_group_symop_operation_xyz
  'x, y, z'

loop_
  _atom_site_type_symbol
  _atom_site_label
  _atom_site_symmetry_multiplicity
  _atom_site_fract_x
  _atom_site_fract_y
  _atom_site_fract_z
  _atom_site_occupancy
  Ba  Ba1       1.0  0.07229397547643139  0.7701456894170091  0.8118677377625092  1.0000
  Ba  Ba2       1.0  0.08092004057366814  0.7499568951740584  0.28421860961272005  1.0000
  Ba  Ba3       1.0  0.3908659570076311  0.38727042215009044  0.6290730724151579  1.0000
  Ba  Ba4       1.0  0.7743516025915831  0.11857912182224123  0.9921254518538272  1.0000
  O   O1        1.0  0.4386530048767873  0.8396052714700631  0.5463837193968343  1.0000
  Ti  Ti1       1.0  0.8016855270435881  0.10096808558390445  0.4961491867492879  1.0000
  O   O2        1.0  0.42986094765288907  0.1756585124088865  0.878496499030622  1.0000
  O   O3        1.0  0.6753706087138913  0.311278354672601  0.3801259388497957  1.0000
  O   O4        1.0  0.1505194599481519  0.5453113792146755  0.027549096315349415  1.0000
  O   O5        1.0  0.059071413041362514  0.17035612356294128  0.36953012446372674  1.0000
  O   O6        1.0  0.552399181917656  0.7825251988412963  0.403097002009224  1.0000
  Ba  Ba5       1.0  0.42580128416873864  0.42223732148628107  0.13061635203677635  1.0000
  O   O7        1.0  0.9219815163882009  0.07821379594430836  0.6920530771680818  1.0000
  O   O8        1.0  0.8234325844463288  0.7678773953308107  0.05642456389415835  1.0000
  O   O9        1.0  0.8275215239913313  0.42489524826729935  0.5331551534707913  1.0000
