data_image1056
_chemical_formula_structural       TiBa2O4
_chemical_formula_sum              "Ti1 Ba2 O4"
_cell_length_a       4.035485185811453
_cell_length_b       4.037251981290819
_cell_length_c       7.323848724365234
_cell_angle_alpha    105.94264120374515
_cell_angle_beta     105.92898741936317
_cell_angle_gamma    89.98152002863141

_space_group_name_H-M_alt    "P 1"
_space_group_IT_number       1

loop_
  _space_group_symop_operation_xyz
  'x, y, z'

loop_
  _atom_site_type_symbol
  _atom_site_label
  _atom_site_symmetry_multiplicity
  _atom_site_fract_x
  _atom_site_fract_y
  _atom_site_fract_z
  _atom_site_occupancy
  Ti  Ti1       1.0  0.18632313830518746  0.6934823266872591  0.7524448871336196  1.0000
  Ba  Ba1       1.0  0.542802324105082  0.04987904497881095  0.46494608400491455  1.0000
  Ba  Ba2       1.0  0.8298906389919226  0.33705284076276665  0.03999860402009034  1.0000
  O   O1        1.0  0.186324278248962  0.1934142240783351  0.7524672791881754  1.0000
  O   O2        1.0  0.6862924402217863  0.6934260937938321  0.7524206271607515  1.0000
  O   O3        1.0  0.33357097941156105  0.8409468464830374  0.047465969078285375  1.0000
  O   O4        1.0  0.039019145902463345  0.5458343202317283  0.45734284586700025  1.0000
