data_image630
_chemical_formula_structural       BaO3Ti
_chemical_formula_sum              "Ba1 O3 Ti1"
_cell_length_a       4.08093647353506
_cell_length_b       4.079906744204035
_cell_length_c       4.0860772132873535
_cell_angle_alpha    90.18077713815687
_cell_angle_beta     90.18598173293903
_cell_angle_gamma    89.77955815021274

_space_group_name_H-M_alt    "P 1"
_space_group_IT_number       1

loop_
  _space_group_symop_operation_xyz
  'x, y, z'

loop_
  _atom_site_type_symbol
  _atom_site_label
  _atom_site_symmetry_multiplicity
  _atom_site_fract_x
  _atom_site_fract_y
  _atom_site_fract_z
  _atom_site_occupancy
  Ba  Ba1       1.0  0.04529507320943744  0.5690296410352199  0.7096258685904723  1.0000
  O   O1        1.0  0.07251708302120768  0.08529503375488569  0.19319258061481379  1.0000
  O   O2        1.0  0.5606768987114756  0.08486211560203392  0.6810938760399359  1.0000
  O   O3        1.0  0.5608642819062438  0.5966916894778228  0.19316320457681033  1.0000
  Ti  Ti1       1.0  0.5302916985422387  0.054390197925635084  0.22459469535663779  1.0000
