data_image644
_chemical_formula_structural       BaTiBaO4
_chemical_formula_sum              "Ba2 Ti1 O4"
_cell_length_a       4.039032467621
_cell_length_b       4.0374882910612415
_cell_length_c       7.3277997970581055
_cell_angle_alpha    105.92773029525087
_cell_angle_beta     105.98487797711319
_cell_angle_gamma    90.00530957164547

_space_group_name_H-M_alt    "P 1"
_space_group_IT_number       1

loop_
  _space_group_symop_operation_xyz
  'x, y, z'

loop_
  _atom_site_type_symbol
  _atom_site_label
  _atom_site_symmetry_multiplicity
  _atom_site_fract_x
  _atom_site_fract_y
  _atom_site_fract_z
  _atom_site_occupancy
  Ba  Ba1       1.0  0.3871339860934524  0.7036472849425214  0.30131935467663323  1.0000
  Ti  Ti1       1.0  0.03096701612533288  0.3469619227309561  0.5887064823252817  1.0000
  Ba  Ba2       1.0  0.6745971451787953  0.9908185421017958  0.8761501012973804  1.0000
  O   O1        1.0  0.17830932571328859  0.4947008749140572  0.8836907281998525  1.0000
  O   O2        1.0  0.5307346118822991  0.34718547007747497  0.5887390759953575  1.0000
  O   O3        1.0  0.030808496475289833  0.8473737904956687  0.5887776894833442  1.0000
  O   O4        1.0  0.8833177170719875  0.19990751226223843  0.2937750469213743  1.0000
