data_image979
_chemical_formula_structural       BaOTiBa2O3TiO2Ba2Ti2O5
_chemical_formula_sum              "Ba5 O11 Ti4"
_cell_length_a       6.1402319561676775
_cell_length_b       8.096034462012964
_cell_length_c       8.115275382995605
_cell_angle_alpha    91.11395847697459
_cell_angle_beta     83.47890699625623
_cell_angle_gamma    96.94997296201264

_space_group_name_H-M_alt    "P 1"
_space_group_IT_number       1

loop_
  _space_group_symop_operation_xyz
  'x, y, z'

loop_
  _atom_site_type_symbol
  _atom_site_label
  _atom_site_symmetry_multiplicity
  _atom_site_fract_x
  _atom_site_fract_y
  _atom_site_fract_z
  _atom_site_occupancy
  Ba  Ba1       1.0  0.18619144217088682  0.4921538084724367  0.4459416505723497  1.0000
  O   O1        1.0  0.6098964945294616  0.31403816172558524  0.869506673196902  1.0000
  Ti  Ti1       1.0  0.7342757388173871  0.6019808475238533  0.33428689724212984  1.0000
  Ba  Ba2       1.0  0.9649366555877854  0.07401519176440449  0.8584745792226899  1.0000
  Ba  Ba3       1.0  0.39529470507835485  0.8252232773562104  0.11187975668631023  1.0000
  O   O2        1.0  0.6892289686554836  0.4178084585836664  0.505412371959674  1.0000
  O   O3        1.0  0.6362329492782002  0.058151923383039185  0.622470742035897  1.0000
  O   O4        1.0  0.9801552284913332  0.7196397315316347  0.22096396116365105  1.0000
  Ti  Ti2       1.0  0.49484279354514565  0.8380485380295178  0.6764979323120949  1.0000
  O   O5        1.0  0.6736131432293144  0.10752592692727098  0.1418953420655676  1.0000
  O   O6        1.0  0.6694495439551639  0.7924996566213862  0.8354417448961694  1.0000
  Ba  Ba4       1.0  0.9226370718061585  0.03547044093305302  0.35452349700717223  1.0000
  Ba  Ba5       1.0  0.9097225650008174  0.5816956783568732  0.9072231535719193  1.0000
  Ti  Ti3       1.0  0.5317366623800117  0.26781102923833405  0.6516537706115106  1.0000
  Ti  Ti4       1.0  0.4944727694982731  0.26087396922905626  0.09257949949578002  1.0000
  O   O7        1.0  0.5146237737182763  0.734317381248999  0.465188431060628  1.0000
  O   O8        1.0  0.2265581179022675  0.13312348442385008  0.10821223823612919  1.0000
  O   O9        1.0  0.2254822360350105  0.8259763422077646  0.8012983435919673  1.0000
  O   O10       1.0  0.512695134661497  0.47129053431014806  0.19811272077135286  1.0000
  O   O11       1.0  0.2370180752987083  0.24664639946101957  0.6312994568145043  1.0000
