data_image976
_chemical_formula_structural       BaOBaOBaTiO4BaTi
_chemical_formula_sum              "Ba4 O6 Ti2"
_cell_length_a       3.9448948492992453
_cell_length_b       5.877844135405474
_cell_length_c       12.094038009643553
_cell_angle_alpha    90.21843878207598
_cell_angle_beta     99.35667162655871
_cell_angle_gamma    90.05681601659464

_space_group_name_H-M_alt    "P 1"
_space_group_IT_number       1

loop_
  _space_group_symop_operation_xyz
  'x, y, z'

loop_
  _atom_site_type_symbol
  _atom_site_label
  _atom_site_symmetry_multiplicity
  _atom_site_fract_x
  _atom_site_fract_y
  _atom_site_fract_z
  _atom_site_occupancy
  Ba  Ba1       1.0  0.536787425416206  0.09695856591769499  0.7085689528663345  1.0000
  O   O1        1.0  0.220810983464473  0.9371339329061908  0.0770689792498603  1.0000
  Ba  Ba2       1.0  0.6590379143003582  0.68513380547  0.953282150506724  1.0000
  O   O2        1.0  0.6560629967570263  0.1995346028048806  0.9472417048087889  1.0000
  Ba  Ba3       1.0  0.901418164767435  0.5967903058182723  0.43882033083601074  1.0000
  Ti  Ti1       1.0  0.1612075668268689  0.16663371161911042  0.9576589338334456  1.0000
  O   O3        1.0  0.21708787649018121  0.4373638959707824  0.06966032776671019  1.0000
  O   O4        1.0  0.09883324031547162  0.9473307270752797  0.8330796423823901  1.0000
  O   O5        1.0  0.33862012081936205  0.44862949143027786  0.31353378835360723  1.0000
  O   O6        1.0  0.7821404399894415  0.7006603954097895  0.19991329848925588  1.0000
  Ba  Ba4       1.0  0.7788703873175472  0.18598013267207858  0.1936537082279472  1.0000
  Ti  Ti2       1.0  0.2769009043544247  0.6677655471582523  0.18952683898277886  1.0000
