data_image969
_chemical_formula_structural       TiBa2O2BaTiO2BaO2
_chemical_formula_sum              "Ti2 Ba4 O6"
_cell_length_a       5.9399580197826065
_cell_length_b       6.486697786265761
_cell_length_c       6.909671783447266
_cell_angle_alpha    74.01341877112132
_cell_angle_beta     70.5510987049289
_cell_angle_gamma    64.7446047430126

_space_group_name_H-M_alt    "P 1"
_space_group_IT_number       1

loop_
  _space_group_symop_operation_xyz
  'x, y, z'

loop_
  _atom_site_type_symbol
  _atom_site_label
  _atom_site_symmetry_multiplicity
  _atom_site_fract_x
  _atom_site_fract_y
  _atom_site_fract_z
  _atom_site_occupancy
  Ti  Ti1       1.0  0.7572508898651649  0.12692341540822624  0.17142617032811097  1.0000
  Ba  Ba1       1.0  0.03824984452325686  0.9910257350897642  0.6753026501539275  1.0000
  Ba  Ba2       1.0  0.46427673330398406  0.7552683427786927  0.1319378023305166  1.0000
  O   O1        1.0  0.4369289519845337  0.057738416872319745  0.34918094762881147  1.0000
  O   O2        1.0  0.7920974531904786  0.32418551104156035  0.33932058348102084  1.0000
  Ba  Ba3       1.0  0.7647735075218823  0.6266331780653737  0.5565771576755186  1.0000
  Ti  Ti2       1.0  0.47179974179937595  0.2549812607453634  0.5170659520807201  1.0000
  O   O3        1.0  0.48431373076008444  0.02335809091316816  0.7554434730719678  1.0000
  O   O4        1.0  0.9357632475438858  0.8126631961549038  0.1153379287897888  1.0000
  Ba  Ba4       1.0  0.1907842689063042  0.3908795228205598  0.013194878245919046  1.0000
  O   O5        1.0  0.7448524514296005  0.35853838374564423  0.9330398723433107  1.0000
  O   O6        1.0  0.2932265805517843  0.5692422818700459  0.5731387352835542  1.0000
