data_image549
_chemical_formula_structural       TiOBaO2TiBaO2Ba2O
_chemical_formula_sum              "Ti2 O6 Ba4"
_cell_length_a       4.0278362588436165
_cell_length_b       3.946505072570672
_cell_length_c       15.44423198699951
_cell_angle_alpha    97.35714741762011
_cell_angle_beta     97.48047375687035
_cell_angle_gamma    90.10000323902943

_space_group_name_H-M_alt    "P 1"
_space_group_IT_number       1

loop_
  _space_group_symop_operation_xyz
  'x, y, z'

loop_
  _atom_site_type_symbol
  _atom_site_label
  _atom_site_symmetry_multiplicity
  _atom_site_fract_x
  _atom_site_fract_y
  _atom_site_fract_z
  _atom_site_occupancy
  Ti  Ti1       1.0  0.022266813386113492  0.8627107616477812  0.45315715791316447  1.0000
  O   O1        1.0  0.9536929114652215  0.7940572900204229  0.3162801676984505  1.0000
  Ba  Ba1       1.0  0.8682069866669374  0.7070236091198039  0.14150522785342723  1.0000
  O   O2        1.0  0.2987491006034544  0.6370335376499335  0.001796402416030185  1.0000
  O   O3        1.0  0.36570594165337034  0.20445841894630284  0.13618751106341676  1.0000
  Ti  Ti2       1.0  0.30440460226536753  0.14259426877539225  0.012961200489677386  1.0000
  Ba  Ba2       1.0  0.5858894191267492  0.4268330837552578  0.5810859817048977  1.0000
  O   O4        1.0  0.08491098878652702  0.9260364313113068  0.5793683895861182  1.0000
  O   O5        1.0  0.020533741268361227  0.36130303928400936  0.4503575751124515  1.0000
  Ba  Ba3       1.0  0.7123940507863064  0.04906723062864442  0.8265296821908004  1.0000
  Ba  Ba4       1.0  0.45800111524775194  0.298139582364028  0.3242658409656087  1.0000
  O   O6        1.0  0.5208151829764076  0.8616187807746226  0.4509963243824662  1.0000
