data_image922
_chemical_formula_structural       TiOTiBaOBaO2BaO3
_chemical_formula_sum              "Ti2 O7 Ba3"
_cell_length_a       3.986354608851583
_cell_length_b       3.9849139578676445
_cell_length_c       12.368134498596191
_cell_angle_alpha    89.96833091380913
_cell_angle_beta     90.00565107098751
_cell_angle_gamma    90.06436337913696

_space_group_name_H-M_alt    "P 1"
_space_group_IT_number       1

loop_
  _space_group_symop_operation_xyz
  'x, y, z'

loop_
  _atom_site_type_symbol
  _atom_site_label
  _atom_site_symmetry_multiplicity
  _atom_site_fract_x
  _atom_site_fract_y
  _atom_site_fract_z
  _atom_site_occupancy
  Ti  Ti1       1.0  0.8180942268064784  0.7831937479915069  0.6417268633588443  1.0000
  O   O1        1.0  0.8124150626184832  0.27632184057153636  0.9669789043887184  1.0000
  Ti  Ti2       1.0  0.8169988098187365  0.7811741395520907  0.00026765479920665136  1.0000
  Ba  Ba1       1.0  0.3209857521366495  0.28372923494386865  0.4591250059120832  1.0000
  O   O2        1.0  0.3124055692555143  0.7775030550987658  0.6730921065505516  1.0000
  Ba  Ba2       1.0  0.3137241563900886  0.27855193556424585  0.821006465499929  1.0000
  O   O3        1.0  0.8168269503797778  0.7826826027851551  0.5034906646208316  1.0000
  O   O4        1.0  0.8197082653770557  0.28259583249677644  0.3209705329133964  1.0000
  Ba  Ba3       1.0  0.3192954866165571  0.2806544422223658  0.1828221308108912  1.0000
  O   O5        1.0  0.8124484445450579  0.27709117771200165  0.6750329324286757  1.0000
  O   O6        1.0  0.8159174603119177  0.780381011160034  0.13849398009281014  1.0000
  O   O7        1.0  0.3122764568466462  0.7767315341029911  0.9689248031284553  1.0000
