data_image204
_chemical_formula_structural       TiBaTiO2BaO2
_chemical_formula_sum              "Ti2 Ba2 O4"
_cell_length_a       4.130408621127959
_cell_length_b       5.845161746229225
_cell_length_c       6.287630558013915
_cell_angle_alpha    117.72154693979545
_cell_angle_beta     109.10037324383876
_cell_angle_gamma    89.98916939628435

_space_group_name_H-M_alt    "P 1"
_space_group_IT_number       1

loop_
  _space_group_symop_operation_xyz
  'x, y, z'

loop_
  _atom_site_type_symbol
  _atom_site_label
  _atom_site_symmetry_multiplicity
  _atom_site_fract_x
  _atom_site_fract_y
  _atom_site_fract_z
  _atom_site_occupancy
  Ti  Ti1       1.0  0.9138317818957  0.028422074008176042  0.8272725828693428  1.0000
  Ba  Ba1       1.0  0.16084389185441383  0.7749048958375424  0.32041978845692104  1.0000
  Ti  Ti2       1.0  0.6205120274164214  0.23444859896141856  0.23923566391760634  1.0000
  O   O1        1.0  0.7671189022751947  0.13142669358333264  0.5331576049084031  1.0000
  O   O2        1.0  0.4213588192661374  0.035608847790852  0.8423149575741992  1.0000
  Ba  Ba2       1.0  0.37344529587040826  0.48785055537852084  0.746086768618718  1.0000
  O   O3        1.0  0.11295553978573585  0.22724251585214283  0.22415504041765005  1.0000
  O   O4        1.0  0.76712110219264  0.6314329413013787  0.5331958992020791  1.0000
