data_image17
_chemical_formula_structural       Ba2Ti2O5
_chemical_formula_sum              "Ba2 Ti2 O5"
_cell_length_a       4.001274750802391
_cell_length_b       4.002039441053714
_cell_length_c       8.3014497756958
_cell_angle_alpha    89.99625956082491
_cell_angle_beta     89.98354174750271
_cell_angle_gamma    90.00184665568985

_space_group_name_H-M_alt    "P 1"
_space_group_IT_number       1

loop_
  _space_group_symop_operation_xyz
  'x, y, z'

loop_
  _atom_site_type_symbol
  _atom_site_label
  _atom_site_symmetry_multiplicity
  _atom_site_fract_x
  _atom_site_fract_y
  _atom_site_fract_z
  _atom_site_occupancy
  Ba  Ba1       1.0  0.41069419050894573  0.9636093613293686  0.45407602000204883  1.0000
  Ba  Ba2       1.0  0.41063593796672526  0.9639405463748882  0.9540669194216985  1.0000
  Ti  Ti1       1.0  0.9105600089758416  0.4637882072119582  0.18935555141641067  1.0000
  Ti  Ti2       1.0  0.9106606805680777  0.46384342140881074  0.7187903260116262  1.0000
  O   O1        1.0  0.4106753100111427  0.46373429926374854  0.21420326230975337  1.0000
  O   O2        1.0  0.41056443347004384  0.46371311399150955  0.6940848686231326  1.0000
  O   O3        1.0  0.9105765128043907  0.9637956232240602  0.6942436117021905  1.0000
  O   O4        1.0  0.9106673398708592  0.9637249527699951  0.21410063155056974  1.0000
  O   O5        1.0  0.9106602999911471  0.4638543750212309  0.9541256418100006  1.0000
