data_image458
_chemical_formula_structural       TiOTiOTiBaO5
_chemical_formula_sum              "Ti3 O7 Ba1"
_cell_length_a       3.744636354964931
_cell_length_b       5.4831247779832095
_cell_length_c       8.555787086486816
_cell_angle_alpha    104.9585338070372
_cell_angle_beta     102.72950717878061
_cell_angle_gamma    90.09798824292146

_space_group_name_H-M_alt    "P 1"
_space_group_IT_number       1

loop_
  _space_group_symop_operation_xyz
  'x, y, z'

loop_
  _atom_site_type_symbol
  _atom_site_label
  _atom_site_symmetry_multiplicity
  _atom_site_fract_x
  _atom_site_fract_y
  _atom_site_fract_z
  _atom_site_occupancy
  Ti  Ti1       1.0  0.4408371626429089  0.7710732720587714  0.003799660918908038  1.0000
  O   O1        1.0  0.14522679974268554  0.9848214282913819  0.4116568911594116  1.0000
  Ti  Ti2       1.0  0.7956675644354259  0.5141655249711022  0.7143463708950264  1.0000
  O   O2        1.0  0.31599669567805383  0.6095150818906353  0.7549521119056121  1.0000
  Ti  Ti3       1.0  0.6626589732710517  0.9101778505972368  0.446785024407805  1.0000
  Ba  Ba1       1.0  0.0604438275086932  0.36958369702403865  0.24302075452182267  1.0000
  O   O3        1.0  0.46302454586736075  0.09927013316040774  0.04883655362824297  1.0000
  O   O4        1.0  0.6935528098524344  0.6171579548767033  0.5106481887531381  1.0000
  O   O5        1.0  0.9193850131967138  0.6489507236506101  0.9611546661195305  1.0000
  O   O6        1.0  0.5452426000748667  0.707016677969304  0.2122615990154364  1.0000
  O   O7        1.0  0.7632570264780288  0.18273899490274068  0.6478095797592188  1.0000
