data_image353
_chemical_formula_structural       OTiBaO
_chemical_formula_sum              "O2 Ti1 Ba1"
_cell_length_a       3.2670094617790904
_cell_length_b       3.266802777602409
_cell_length_c       6.495731353759766
_cell_angle_alpha    75.4285574687291
_cell_angle_beta     75.44287373862204
_cell_angle_gamma    60.055252898682056

_space_group_name_H-M_alt    "P 1"
_space_group_IT_number       1

loop_
  _space_group_symop_operation_xyz
  'x, y, z'

loop_
  _atom_site_type_symbol
  _atom_site_label
  _atom_site_symmetry_multiplicity
  _atom_site_fract_x
  _atom_site_fract_y
  _atom_site_fract_z
  _atom_site_occupancy
  O   O1        1.0  0.14592443424912288  0.4225942634542596  0.4343136718250591  1.0000
  Ti  Ti1       1.0  0.7569102244085248  0.0335245269501179  0.601273749189755  1.0000
  Ba  Ba1       1.0  0.9271804437341375  0.20372938342673722  0.09136513469888712  1.0000
  O   O2        1.0  0.36968481662364966  0.6462213806446352  0.7631742765431903  1.0000
