data_image674
_chemical_formula_structural       TiOTiBaOBa2O5
_chemical_formula_sum              "Ti2 O7 Ba3"
_cell_length_a       4.08660934058233
_cell_length_b       4.083129030775126
_cell_length_c       11.086189270019531
_cell_angle_alpha    100.58265696088742
_cell_angle_beta     100.61520922263415
_cell_angle_gamma    89.71753323090923

_space_group_name_H-M_alt    "P 1"
_space_group_IT_number       1

loop_
  _space_group_symop_operation_xyz
  'x, y, z'

loop_
  _atom_site_type_symbol
  _atom_site_label
  _atom_site_symmetry_multiplicity
  _atom_site_fract_x
  _atom_site_fract_y
  _atom_site_fract_z
  _atom_site_occupancy
  Ti  Ti1       1.0  0.1236582225100505  0.8790430792938139  0.4257947678760255  1.0000
  O   O1        1.0  0.6630045740741215  0.9055066648797746  0.42664698899396125  1.0000
  Ti  Ti2       1.0  0.3127334345458934  0.06860736261471596  0.8048485961568203  1.0000
  Ba  Ba1       1.0  0.5504853759157905  0.30548793888012904  0.24950143559259605  1.0000
  O   O2        1.0  0.25030696675420006  0.005558491680111629  0.6153076321484445  1.0000
  Ba  Ba2       1.0  0.9154147950896984  0.6710200777888037  0.9811231356417233  1.0000
  Ba  Ba3       1.0  0.732247572708865  0.4875808365091392  0.6153123676460928  1.0000
  O   O3        1.0  0.338959775832359  0.6065434720480554  0.8041057680171187  1.0000
  O   O4        1.0  0.8512311050279383  0.09432470520642922  0.8040549132940954  1.0000
  O   O5        1.0  0.43366961478545957  0.18948545200656697  0.9872330345189775  1.0000
  O   O6        1.0  0.15046011582437216  0.41787396755309547  0.4266363314190516  1.0000
  O   O7        1.0  0.06352946653431778  0.818822009319499  0.2434863979614342  1.0000
