data_image357
_chemical_formula_structural       TiBa4Ti2OTi2O2TiO2TiO2
_chemical_formula_sum              "Ti7 Ba4 O7"
_cell_length_a       3.98076186571642
_cell_length_b       3.9810755487096836
_cell_length_c       20.74208641052246
_cell_angle_alpha    90.02872345175622
_cell_angle_beta     90.04167348908413
_cell_angle_gamma    90.10407408935208

_space_group_name_H-M_alt    "P 1"
_space_group_IT_number       1

loop_
  _space_group_symop_operation_xyz
  'x, y, z'

loop_
  _atom_site_type_symbol
  _atom_site_label
  _atom_site_symmetry_multiplicity
  _atom_site_fract_x
  _atom_site_fract_y
  _atom_site_fract_z
  _atom_site_occupancy
  Ti  Ti1       1.0  0.35388248733304745  0.5388448682687773  0.23055937425048686  1.0000
  Ba  Ba1       1.0  0.853677037514516  0.03844569619209562  0.9532465760313114  1.0000
  Ba  Ba2       1.0  0.8539630391236742  0.03871714860221878  0.15038607085907876  1.0000
  Ba  Ba3       1.0  0.8530775034275836  0.03796933808291712  0.7487873135921376  1.0000
  Ba  Ba4       1.0  0.35434042311452635  0.540006107806989  0.5046150789809531  1.0000
  Ti  Ti2       1.0  0.3535999068889345  0.03891362396517969  0.3241997097551839  1.0000
  Ti  Ti3       1.0  0.8538611375965394  0.039404973056040786  0.41617587672949363  1.0000
  O   O1        1.0  0.8538330428727874  0.5385429887083081  0.05347409647392714  1.0000
  Ti  Ti4       1.0  0.3534243557384177  0.5383055426758253  0.8462604154300091  1.0000
  Ti  Ti5       1.0  0.35256326572355784  0.5375323980271  0.6595396754872304  1.0000
  O   O2        1.0  0.8534974259612771  0.5383362165730008  0.8575164207415754  1.0000
  O   O3        1.0  0.35313465078320333  0.5380456173541107  0.7545693803455653  1.0000
  Ti  Ti6       1.0  0.35381838450661046  0.5385543200421499  0.057735234190422334  1.0000
  O   O4        1.0  0.35347350346147954  0.038337981134430946  0.8575059274345733  1.0000
  O   O5        1.0  0.352789718758988  0.03779239188104775  0.6530497238713266  1.0000
  Ti  Ti7       1.0  0.8536903154733516  0.5389466603949765  0.3242095303722726  1.0000
  O   O6        1.0  0.8528230698254163  0.5377500394981588  0.6529886058420152  1.0000
  O   O7        1.0  0.353828903305465  0.03852961119852566  0.05348153318857606  1.0000
