data_image2
_chemical_formula_structural       BaO3TiO
_chemical_formula_sum              "Ba1 O4 Ti1"
_cell_length_a       3.8671135835124346
_cell_length_b       3.955651217551887
_cell_length_c       6.576888084411622
_cell_angle_alpha    107.06452649341715
_cell_angle_beta     89.85920498759783
_cell_angle_gamma    90.0413729612019

_space_group_name_H-M_alt    "P 1"
_space_group_IT_number       1

loop_
  _space_group_symop_operation_xyz
  'x, y, z'

loop_
  _atom_site_type_symbol
  _atom_site_label
  _atom_site_symmetry_multiplicity
  _atom_site_fract_x
  _atom_site_fract_y
  _atom_site_fract_z
  _atom_site_occupancy
  Ba  Ba1       1.0  0.38667110397423976  0.3246963906351228  0.6151645323932787  1.0000
  O   O1        1.0  0.3873321992127013  0.014496641807086768  0.9945341814891405  1.0000
  O   O2        1.0  0.8871474926588596  0.8695051021555178  0.7043929354408689  1.0000
  O   O3        1.0  0.8872439762669293  0.17835422546094737  0.32336386034856324  1.0000
  Ti  Ti1       1.0  0.8870095178371523  0.03111940738914331  0.03180230279791481  1.0000
  O   O4        1.0  0.887369048375633  0.5246766381847632  0.016815419339421878  1.0000
