data_image295
_chemical_formula_structural       BaTiOTiO2BaTi
_chemical_formula_sum              "Ba2 Ti3 O3"
_cell_length_a       4.299539157815324
_cell_length_b       4.3270300466253415
_cell_length_c       8.549466133117676
_cell_angle_alpha    89.95566774427468
_cell_angle_beta     89.98976405091375
_cell_angle_gamma    89.95395336954485

_space_group_name_H-M_alt    "P 1"
_space_group_IT_number       1

loop_
  _space_group_symop_operation_xyz
  'x, y, z'

loop_
  _atom_site_type_symbol
  _atom_site_label
  _atom_site_symmetry_multiplicity
  _atom_site_fract_x
  _atom_site_fract_y
  _atom_site_fract_z
  _atom_site_occupancy
  Ba  Ba1       1.0  0.007710918569771463  0.8037147746851907  0.25685349529429474  1.0000
  Ti  Ti1       1.0  0.19953470763935632  0.5374340313119399  0.6185518152722231  1.0000
  O   O1        1.0  0.7963939505229161  0.848233001655886  0.9427281174706693  1.0000
  Ti  Ti2       1.0  0.6097706551707383  0.26658518687637517  0.47939093167811797  1.0000
  O   O2        1.0  0.5825373085954688  0.2991592805534137  0.2584612621934169  1.0000
  O   O3        1.0  0.5464207809378241  0.7988642088608436  0.5013842772314223  1.0000
  Ba  Ba2       1.0  0.40145202699277327  0.32795501849381514  0.9670122745131109  1.0000
  Ti  Ti3       1.0  0.7703324901798814  0.8652482433741664  0.7222158622167043  1.0000
