data_image571
_chemical_formula_structural       BaOTiBaOBaTiO5
_chemical_formula_sum              "Ba3 O7 Ti2"
_cell_length_a       4.074054794279381
_cell_length_b       4.0757108543519625
_cell_length_c       11.096346855163574
_cell_angle_alpha    100.607286606843
_cell_angle_beta     100.56572379510266
_cell_angle_gamma    89.83124912009337

_space_group_name_H-M_alt    "P 1"
_space_group_IT_number       1

loop_
  _space_group_symop_operation_xyz
  'x, y, z'

loop_
  _atom_site_type_symbol
  _atom_site_label
  _atom_site_symmetry_multiplicity
  _atom_site_fract_x
  _atom_site_fract_y
  _atom_site_fract_z
  _atom_site_occupancy
  Ba  Ba1       1.0  0.19289501572303036  0.19107447447278453  0.5048823058616441  1.0000
  O   O1        1.0  0.4046383321244473  0.8916369286140537  0.9500530779783011  1.0000
  Ti  Ti1       1.0  0.4296354121606996  0.42811274667313765  0.9493372475190224  1.0000
  Ba  Ba2       1.0  0.8270961790777458  0.825478233940159  0.7729850610065385  1.0000
  O   O2        1.0  0.5929925458751144  0.0798557894667316  0.32760233888098045  1.0000
  Ba  Ba3       1.0  0.011024582216937551  0.009194085117910332  0.13885231425210393  1.0000
  Ti  Ti2       1.0  0.6189009039293054  0.6172035944924436  0.3284418398367012  1.0000
  O   O3        1.0  0.31047128024558424  0.3086438566940734  0.7668682019583096  1.0000
  O   O4        1.0  0.08185324708335398  0.5909829663383717  0.3275903285715794  1.0000
  O   O5        1.0  0.6815875762268716  0.6798324241310171  0.5108652279552099  1.0000
  O   O6        1.0  0.8934408623973986  0.4028624741538211  0.950043097018988  1.0000
  O   O7        1.0  0.49416612398011855  0.49223094802626  0.13881577940348824  1.0000
