data_image759
_chemical_formula_structural       BaO2Ti
_chemical_formula_sum              "Ba1 O2 Ti1"
_cell_length_a       3.3156679799959363
_cell_length_b       3.317190207712773
_cell_length_c       6.3071069717407235
_cell_angle_alpha    74.79119111872608
_cell_angle_beta     74.79879517186427
_cell_angle_gamma    60.03518108910951

_space_group_name_H-M_alt    "P 1"
_space_group_IT_number       1

loop_
  _space_group_symop_operation_xyz
  'x, y, z'

loop_
  _atom_site_type_symbol
  _atom_site_label
  _atom_site_symmetry_multiplicity
  _atom_site_fract_x
  _atom_site_fract_y
  _atom_site_fract_z
  _atom_site_occupancy
  Ba  Ba1       1.0  0.08008998991329906  0.07016862463717449  0.4636219381397041  1.0000
  O   O1        1.0  0.8583540889201821  0.8485487636330056  0.12874187670671497  1.0000
  O   O2        1.0  0.3017719561022712  0.29200659156351955  0.7985041214024416  1.0000
  Ti  Ti1       1.0  0.5800661591962748  0.5703180041160565  0.9636370092209305  1.0000
