data_image911
_chemical_formula_structural       BaOBa2OTiBaTiOTiO8
_chemical_formula_sum              "Ba4 O11 Ti3"
_cell_length_a       5.817172527696003
_cell_length_b       5.913002591438045
_cell_length_c       9.765263557434084
_cell_angle_alpha    88.30807580099027
_cell_angle_beta     90.03281473072552
_cell_angle_gamma    60.711017743594034

_space_group_name_H-M_alt    "P 1"
_space_group_IT_number       1

loop_
  _space_group_symop_operation_xyz
  'x, y, z'

loop_
  _atom_site_type_symbol
  _atom_site_label
  _atom_site_symmetry_multiplicity
  _atom_site_fract_x
  _atom_site_fract_y
  _atom_site_fract_z
  _atom_site_occupancy
  Ba  Ba1       1.0  0.4397656971913135  0.517770917496144  0.9843171554279732  1.0000
  O   O1        1.0  0.08170943207795862  0.6499721631280898  0.49563318796508066  1.0000
  Ba  Ba2       1.0  0.7480797378696241  0.8923111331609859  0.28887750951890084  1.0000
  Ba  Ba3       1.0  0.07985997299221113  0.18810872317805968  0.5402398122139626  1.0000
  O   O2        1.0  0.5991399617486318  0.1993086653167454  0.5116329372697085  1.0000
  Ti  Ti1       1.0  0.4094795930611285  0.50619097889259  0.4230741541320175  1.0000
  Ba  Ba4       1.0  0.7636398923162324  0.8410432259976343  0.7206420904034296  1.0000
  Ti  Ti2       1.0  0.10182675598025578  0.17070915575830697  0.877157746960489  1.0000
  O   O3        1.0  0.3353675043055271  0.2556378933530857  0.8094832962032986  1.0000
  Ti  Ti3       1.0  0.0616686484148616  0.29960209689836514  0.16738883700999446  1.0000
  O   O4        1.0  0.8031538437128584  0.3735236155232546  0.7812439357054236  1.0000
  O   O5        1.0  0.9343637907363487  0.5259895577916772  0.026073637661902425  1.0000
  O   O6        1.0  0.8021926051796426  0.35892342286177176  0.2867947437606619  1.0000
  O   O7        1.0  0.017592679678120282  0.024084893401586913  0.06513978108783613  1.0000
  O   O8        1.0  0.20421262589107417  0.8703580763649275  0.7899342940053637  1.0000
  O   O9        1.0  0.28847495426193104  0.40020277945820815  0.25390310463217336  1.0000
  O   O10       1.0  0.3483256074130817  0.9901991140293086  0.08101569631046844  1.0000
  O   O11       1.0  0.49404452257834963  0.7566651395352708  0.46165334468257  1.0000
