data_image845
_chemical_formula_structural       O2BaOTiOBaO2Ti
_chemical_formula_sum              "O6 Ba2 Ti2"
_cell_length_a       4.128176983603298
_cell_length_b       4.124393022576529
_cell_length_c       7.9871530532836905
_cell_angle_alpha    89.99240050407427
_cell_angle_beta     90.02164054545305
_cell_angle_gamma    89.39370708761496

_space_group_name_H-M_alt    "P 1"
_space_group_IT_number       1

loop_
  _space_group_symop_operation_xyz
  'x, y, z'

loop_
  _atom_site_type_symbol
  _atom_site_label
  _atom_site_symmetry_multiplicity
  _atom_site_fract_x
  _atom_site_fract_y
  _atom_site_fract_z
  _atom_site_occupancy
  O   O1        1.0  0.03313355631481737  0.034949137188155725  0.8343650026346907  1.0000
  O   O2        1.0  0.033197723105341144  0.03491761009291105  0.3345198155138013  1.0000
  Ba  Ba1       1.0  0.550354077156393  0.07012765038711768  0.5845508903849422  1.0000
  O   O3        1.0  0.5147677117775051  0.5529329415916594  0.3346634495617211  1.0000
  Ti  Ti1       1.0  0.06746543367189535  0.5869282926134437  0.8346268174929542  1.0000
  O   O4        1.0  0.026649592665242482  0.5461730536798294  0.5844507088357817  1.0000
  Ba  Ba2       1.0  0.5506535604731504  0.07028532307213395  0.08453413627695354  1.0000
  O   O5        1.0  0.5148634245679267  0.5531193870163943  0.8345456015866508  1.0000
  O   O6        1.0  0.02690104743713744  0.5464704346245515  0.08443609573787458  1.0000
  Ti  Ti2       1.0  0.06758682364203712  0.586718598863375  0.3346062748842719  1.0000
