data_image241
_chemical_formula_structural       OBaTiOTiBaO6
_chemical_formula_sum              "O8 Ba2 Ti2"
_cell_length_a       4.086613814163076
_cell_length_b       5.8784444923705355
_cell_length_c       6.633645534515381
_cell_angle_alpha    90.09121967348153
_cell_angle_beta     96.42644529450307
_cell_angle_gamma    90.00424405314851

_space_group_name_H-M_alt    "P 1"
_space_group_IT_number       1

loop_
  _space_group_symop_operation_xyz
  'x, y, z'

loop_
  _atom_site_type_symbol
  _atom_site_label
  _atom_site_symmetry_multiplicity
  _atom_site_fract_x
  _atom_site_fract_y
  _atom_site_fract_z
  _atom_site_occupancy
  O   O1        1.0  0.7981415427064981  0.31047954102962094  0.6190040447196055  1.0000
  Ba  Ba1       1.0  0.23617117959735315  0.5608557847938359  0.35847938490152875  1.0000
  Ti  Ti1       1.0  0.7794618078306632  0.5608441159902912  0.8079152464670007  1.0000
  O   O2        1.0  0.9043130574878746  0.32395568324081736  0.03708977772987257  1.0000
  Ti  Ti2       1.0  0.8166165953967398  0.06057170952644214  0.42973493559047227  1.0000
  Ba  Ba2       1.0  0.35987055001596086  0.060778342875306604  0.8791471939994626  1.0000
  O   O3        1.0  0.9047241852496002  0.7976081959046163  0.03715240974729947  1.0000
  O   O4        1.0  0.79794394936995  0.8104816711585122  0.6186507048522758  1.0000
  O   O5        1.0  0.3465680025721589  0.5609054685237816  0.8219627989115125  1.0000
  O   O6        1.0  0.6919874551145776  0.2976307506379644  0.20077279770415948  1.0000
  O   O7        1.0  0.2495282456500825  0.06041300792239532  0.4157443666715968  1.0000
  O   O8        1.0  0.6913167864450872  0.8239471620951644  0.2002949126887402  1.0000
