data_image342
_chemical_formula_structural       TiOBaTiOBaO4
_chemical_formula_sum              "Ti2 O6 Ba2"
_cell_length_a       5.703683194233373
_cell_length_b       5.707004967646005
_cell_length_c       5.706470012664795
_cell_angle_alpha    60.107046265814894
_cell_angle_beta     60.05293623182899
_cell_angle_gamma    60.09847909249453

_space_group_name_H-M_alt    "P 1"
_space_group_IT_number       1

loop_
  _space_group_symop_operation_xyz
  'x, y, z'

loop_
  _atom_site_type_symbol
  _atom_site_label
  _atom_site_symmetry_multiplicity
  _atom_site_fract_x
  _atom_site_fract_y
  _atom_site_fract_z
  _atom_site_occupancy
  Ti  Ti1       1.0  0.8098809354610135  0.9187557873383804  0.3641894694684341  1.0000
  O   O1        1.0  0.5599003900027268  0.1686089216572615  0.6138485467970903  1.0000
  Ba  Ba1       1.0  0.5598285344539659  0.6686914762628141  0.11393896663277947  1.0000
  Ti  Ti2       1.0  0.30990489781263497  0.4187529538892464  0.8641799309536626  1.0000
  O   O2        1.0  0.5598700900677634  0.6686672028760108  0.614060444074646  1.0000
  Ba  Ba2       1.0  0.059730535664399176  0.16872063284133326  0.6139037757847939  1.0000
  O   O3        1.0  0.05988502058724027  0.6687394405360697  0.6137259123333907  1.0000
  O   O4        1.0  0.05982526204746981  0.6687017439887104  0.11387416715557391  1.0000
  O   O5        1.0  0.5599641296894676  0.16862102389244876  0.11389794530312417  1.0000
  O   O6        1.0  0.059868748448887836  0.1687831865594031  0.11374245085318731  1.0000
