data_image597
_chemical_formula_structural       OBaTiO
_chemical_formula_sum              "O2 Ba1 Ti1"
_cell_length_a       3.3055985058931463
_cell_length_b       3.3068790330266085
_cell_length_c       6.2951440811157235
_cell_angle_alpha    74.79886917235315
_cell_angle_beta     74.81593121793443
_cell_angle_gamma    60.046748357922525

_space_group_name_H-M_alt    "P 1"
_space_group_IT_number       1

loop_
  _space_group_symop_operation_xyz
  'x, y, z'

loop_
  _atom_site_type_symbol
  _atom_site_label
  _atom_site_symmetry_multiplicity
  _atom_site_fract_x
  _atom_site_fract_y
  _atom_site_fract_z
  _atom_site_occupancy
  O   O1        1.0  0.8795737928617183  0.27460347052651524  0.15793077031898817  1.0000
  Ba  Ba1       1.0  0.10151844446711834  0.49632473982342584  0.4917826517434544  1.0000
  Ti  Ti1       1.0  0.6023161015630297  0.9960550291488899  0.9920502461944948  1.0000
  O   O2        1.0  0.3238648884992919  0.7181632554344783  0.8258834644742828  1.0000
