data_image629
_chemical_formula_structural       Ba2O2TiBa2TiOTiO6
_chemical_formula_sum              "Ba4 O9 Ti3"
_cell_length_a       6.438155364890449
_cell_length_b       6.018223943355373
_cell_length_c       8.296849250793457
_cell_angle_alpha    89.91351182225891
_cell_angle_beta     91.53883735044005
_cell_angle_gamma    62.328680194900386

_space_group_name_H-M_alt    "P 1"
_space_group_IT_number       1

loop_
  _space_group_symop_operation_xyz
  'x, y, z'

loop_
  _atom_site_type_symbol
  _atom_site_label
  _atom_site_symmetry_multiplicity
  _atom_site_fract_x
  _atom_site_fract_y
  _atom_site_fract_z
  _atom_site_occupancy
  Ba  Ba1       1.0  0.5838413724030548  0.01376999369880175  0.7247181470272694  1.0000
  Ba  Ba2       1.0  0.6158594709781425  0.9981878790850761  0.22585167820783852  1.0000
  O   O1        1.0  0.3052240896837539  0.8754785729338777  0.09165786519001973  1.0000
  O   O2        1.0  0.6618942677283923  0.47591614299723844  0.703013132737629  1.0000
  Ti  Ti1       1.0  0.18752105905132152  0.7117964048048239  0.9333739750199727  1.0000
  Ba  Ba3       1.0  0.015038783836025213  0.2977959171569  0.4967880894191962  1.0000
  Ba  Ba4       1.0  0.9577973029481295  0.32629056854282257  0.9697830868793522  1.0000
  Ti  Ti2       1.0  0.40530076708959123  0.6028487895353806  0.2598918802136952  1.0000
  O   O3        1.0  0.30339854073210015  0.4312453263487672  0.09279014226850571  1.0000
  Ti  Ti3       1.0  0.3640277412135849  0.6236418317739953  0.6133988835970928  1.0000
  O   O4        1.0  0.8693055213278584  0.8705659596884434  0.9676017417793636  1.0000
  O   O5        1.0  0.2052047054410504  0.4773439721688136  0.7522010112107996  1.0000
  O   O6        1.0  0.20445502162911192  0.9284825401687118  0.7513123682077466  1.0000
  O   O7        1.0  0.3780464450887703  0.3909080818336737  0.4386104918883365  1.0000
  O   O8        1.0  0.7245925979859971  0.4432297784981739  0.23906353729102076  1.0000
  O   O9        1.0  0.37750084048067967  0.8423622956500388  0.43778011307840836  1.0000
