data_image779
_chemical_formula_structural       OBaTiOBaTiO4
_chemical_formula_sum              "O6 Ba2 Ti2"
_cell_length_a       5.737126361908867
_cell_length_b       5.408228689498514
_cell_length_c       7.294763565063477
_cell_angle_alpha    89.90802717442202
_cell_angle_beta     118.07611565435955
_cell_angle_gamma    89.9196863070419

_space_group_name_H-M_alt    "P 1"
_space_group_IT_number       1

loop_
  _space_group_symop_operation_xyz
  'x, y, z'

loop_
  _atom_site_type_symbol
  _atom_site_label
  _atom_site_symmetry_multiplicity
  _atom_site_fract_x
  _atom_site_fract_y
  _atom_site_fract_z
  _atom_site_occupancy
  O   O1        1.0  0.7345094271152436  0.40740533736820966  0.5054057551717446  1.0000
  Ba  Ba1       1.0  0.18609761021049173  0.15483856394175707  0.6967691938727386  1.0000
  Ti  Ti1       1.0  0.47364093071148494  0.15580873137402984  0.352366223484846  1.0000
  O   O2        1.0  0.46535176326980304  0.15585375399422838  0.10633634823497587  1.0000
  Ba  Ba2       1.0  0.7888736292817434  0.6562323037298781  0.19106761600208916  1.0000
  Ti  Ti2       1.0  0.5013590539927596  0.6555592556943242  0.5354807899944103  1.0000
  O   O3        1.0  0.24044932421398127  0.40383061812583415  0.3824848508117599  1.0000
  O   O4        1.0  0.24028552425548405  0.9081593730800288  0.38210453886267104  1.0000
  O   O5        1.0  0.7346606386738072  0.9031755819416534  0.5056913245135817  1.0000
  O   O6        1.0  0.5100510067216371  0.6556684846170058  0.7816211103201878  1.0000
