data_image841
_chemical_formula_structural       BaTiBaTi3O10
_chemical_formula_sum              "Ba2 Ti4 O10"
_cell_length_a       5.559851586682949
_cell_length_b       5.465456746679505
_cell_length_c       8.741522789001465
_cell_angle_alpha    89.7636164859466
_cell_angle_beta     89.75013370371343
_cell_angle_gamma    89.76766676778108

_space_group_name_H-M_alt    "P 1"
_space_group_IT_number       1

loop_
  _space_group_symop_operation_xyz
  'x, y, z'

loop_
  _atom_site_type_symbol
  _atom_site_label
  _atom_site_symmetry_multiplicity
  _atom_site_fract_x
  _atom_site_fract_y
  _atom_site_fract_z
  _atom_site_occupancy
  Ba  Ba1       1.0  0.9482011915036078  0.06214685030869388  0.2980780154622695  1.0000
  Ti  Ti1       1.0  0.482526089237545  0.06209585324751791  0.607262775649143  1.0000
  Ba  Ba2       1.0  0.9476030417817122  0.5627044370717721  0.8012195593742645  1.0000
  Ti  Ti2       1.0  0.4139631568014131  0.5629093514418435  0.49261656003179866  1.0000
  Ti  Ti3       1.0  0.48219732012161204  0.062445688561438284  0.9922718123553953  1.0000
  Ti  Ti4       1.0  0.4129937609563939  0.5624784946657443  0.10763892677426153  1.0000
  O   O1        1.0  0.657116246048434  0.8141251458807345  0.10166048769748388  1.0000
  O   O2        1.0  0.625067309976977  0.0612708539330395  0.7996213084060955  1.0000
  O   O3        1.0  0.23839705687179213  0.8115075930443549  0.601953428026403  1.0000
  O   O4        1.0  0.2364947819003725  0.31316272732706363  0.0010334512003716692  1.0000
  O   O5        1.0  0.2380426664281378  0.8107872367753184  0.9982114204787186  1.0000
  O   O6        1.0  0.6585213191704088  0.31161674741358747  0.09900457757892062  1.0000
  O   O7        1.0  0.6582842910185156  0.813422905920966  0.49807608544025  1.0000
  O   O8        1.0  0.6582236743362544  0.3105631038036829  0.4978108931978738  1.0000
  O   O9        1.0  0.27079132244521875  0.563904538125538  0.30041402996364086  1.0000
  O   O10       1.0  0.23839759778778233  0.3144956377965839  0.602113984340105  1.0000
