data_image599
_chemical_formula_structural       Ba4O2TiO
_chemical_formula_sum              "Ba4 O3 Ti1"
_cell_length_a       6.2334069451473795
_cell_length_b       6.251432599016057
_cell_length_c       7.7767744064331055
_cell_angle_alpha    66.76757034929223
_cell_angle_beta     66.66763022422003
_cell_angle_gamma    60.30730011691594

_space_group_name_H-M_alt    "P 1"
_space_group_IT_number       1

loop_
  _space_group_symop_operation_xyz
  'x, y, z'

loop_
  _atom_site_type_symbol
  _atom_site_label
  _atom_site_symmetry_multiplicity
  _atom_site_fract_x
  _atom_site_fract_y
  _atom_site_fract_z
  _atom_site_occupancy
  Ba  Ba1       1.0  0.41697177021901527  0.19928419781433154  0.5047129168968658  1.0000
  Ba  Ba2       1.0  0.9713049810220011  0.7520452034749486  0.8402520675255283  1.0000
  Ba  Ba3       1.0  0.20540035615679922  0.9863041302420087  0.13894110559453554  1.0000
  Ba  Ba4       1.0  0.7856907575028002  0.5690724316218478  0.3993249384070059  1.0000
  O   O1        1.0  0.7014929354173572  0.008926153714748234  0.12564293465239723  1.0000
  O   O2        1.0  0.701462746321182  0.48365577515171293  0.12566591934395377  1.0000
  Ti  Ti1       1.0  0.5767135303003219  0.3577223606549577  0.02468449677898613  1.0000
  O   O3        1.0  0.22678586462172098  0.48333030582781056  0.12589356945500466  1.0000
