data_image236
_chemical_formula_structural       TiBaO2
_chemical_formula_sum              "Ti1 Ba1 O2"
_cell_length_a       3.247499528088834
_cell_length_b       3.2452311530079214
_cell_length_c       6.500897407531737
_cell_angle_alpha    75.61073268743179
_cell_angle_beta     75.63762352467344
_cell_angle_gamma    60.10671555774928

_space_group_name_H-M_alt    "P 1"
_space_group_IT_number       1

loop_
  _space_group_symop_operation_xyz
  'x, y, z'

loop_
  _atom_site_type_symbol
  _atom_site_label
  _atom_site_symmetry_multiplicity
  _atom_site_fract_x
  _atom_site_fract_y
  _atom_site_fract_z
  _atom_site_occupancy
  Ti  Ti1       1.0  0.019683133549752825  0.2767588523285401  0.40657722425374143  1.0000
  Ba  Ba1       1.0  0.18928242397094325  0.4471115856040304  0.8969210101079987  1.0000
  O   O1        1.0  0.6321764343890536  0.8893419566832592  0.5691142170167189  1.0000
  O   O2        1.0  0.40883238023306484  0.6659687561947955  0.2391364531996185  1.0000
