data_image951
_chemical_formula_structural       Ba2TiO
_chemical_formula_sum              "Ba2 Ti1 O1"
_cell_length_a       3.5735502150084866
_cell_length_b       3.5754031586317705
_cell_length_c       10.124695777893066
_cell_angle_alpha    79.85078545022202
_cell_angle_beta     79.86663812009512
_cell_angle_gamma    59.999167937328345

_space_group_name_H-M_alt    "P 1"
_space_group_IT_number       1

loop_
  _space_group_symop_operation_xyz
  'x, y, z'

loop_
  _atom_site_type_symbol
  _atom_site_label
  _atom_site_symmetry_multiplicity
  _atom_site_fract_x
  _atom_site_fract_y
  _atom_site_fract_z
  _atom_site_occupancy
  Ba  Ba1       1.0  0.4058697282637023  0.7275203715986163  0.0524242164878148  1.0000
  Ba  Ba2       1.0  0.6057354283506655  0.9280757784863912  0.45323792082329545  1.0000
  Ti  Ti1       1.0  0.17696131393575992  0.500126508057393  0.7303950121763305  1.0000
  O   O1        1.0  0.8667203423321111  0.18636917952594045  0.68187809126856  1.0000
