data_image179
_chemical_formula_structural       TiBaTi2OTiO2BaOBaO2BaO4
_chemical_formula_sum              "Ti4 Ba4 O10"
_cell_length_a       5.834163268377778
_cell_length_b       5.844175258622929
_cell_length_c       9.001763343811035
_cell_angle_alpha    108.94069024250003
_cell_angle_beta     108.92618847313418
_cell_angle_gamma    90.00518654029281

_space_group_name_H-M_alt    "P 1"
_space_group_IT_number       1

loop_
  _space_group_symop_operation_xyz
  'x, y, z'

loop_
  _atom_site_type_symbol
  _atom_site_label
  _atom_site_symmetry_multiplicity
  _atom_site_fract_x
  _atom_site_fract_y
  _atom_site_fract_z
  _atom_site_occupancy
  Ti  Ti1       1.0  0.6755906635265109  0.8068766305227194  0.26045031258276047  1.0000
  Ba  Ba1       1.0  0.8085528272534523  0.4785071810459279  0.5262410586739028  1.0000
  Ti  Ti2       1.0  0.9255730479506161  0.09701684569010931  0.7604716868945902  1.0000
  Ti  Ti3       1.0  0.17563688460029028  0.38775092317211757  0.2604991925087442  1.0000
  O   O1        1.0  0.5581111843943811  0.7491915059213791  0.02485199587637287  1.0000
  Ti  Ti4       1.0  0.42583737524988186  0.5969088914696375  0.7606114001222714  1.0000
  O   O2        1.0  0.6792022740570695  0.35028497419649096  0.7673843081505748  1.0000
  O   O3        1.0  0.7932140577551714  0.9854662554089799  0.49580936613586574  1.0000
  Ba  Ba2       1.0  0.5427871540124565  0.21262127208136605  0.9947066396843786  1.0000
  O   O4        1.0  0.9254890873133548  0.5969286386913082  0.2606335825340492  1.0000
  Ba  Ba3       1.0  0.3084775913464573  0.9813347426032764  0.5263486821361476  1.0000
  O   O5        1.0  0.4252598724535074  0.5975977366035515  0.2604010930424128  1.0000
  O   O6        1.0  0.1791545099588279  0.3502960811241465  0.7673468319536645  1.0000
  Ba  Ba4       1.0  0.04284165003951488  0.7155309701930263  0.994596671511052  1.0000
  O   O7        1.0  0.1722205221130886  0.8433688243041435  0.7535612298728983  1.0000
  O   O8        1.0  0.29348131510074127  0.4438010482176893  0.4956572524987724  1.0000
  O   O9        1.0  0.6722399708807603  0.8434789240382203  0.7535849692960204  1.0000
  O   O10       1.0  0.058001112577241075  0.20885441843531435  0.02513557298455953  1.0000
