data_image828
_chemical_formula_structural       BaO2Ba3Ti3O10Ti
_chemical_formula_sum              "Ba4 O12 Ti4"
_cell_length_a       5.804386330351524
_cell_length_b       5.805014488594161
_cell_length_c       10.08830738067627
_cell_angle_alpha    73.38771717577345
_cell_angle_beta     73.39389815351447
_cell_angle_gamma    60.12470798306635

_space_group_name_H-M_alt    "P 1"
_space_group_IT_number       1

loop_
  _space_group_symop_operation_xyz
  'x, y, z'

loop_
  _atom_site_type_symbol
  _atom_site_label
  _atom_site_symmetry_multiplicity
  _atom_site_fract_x
  _atom_site_fract_y
  _atom_site_fract_z
  _atom_site_occupancy
  Ba  Ba1       1.0  0.8574834080718747  0.5494315424949909  0.13431236859278275  1.0000
  O   O1        1.0  0.1229538903525332  0.26441420044448904  0.8893613405845211  1.0000
  O   O2        1.0  0.3336547469516593  0.5760477746803254  0.15456479481597415  1.0000
  Ba  Ba2       1.0  0.5990993620957585  0.290925233896399  0.909805079805782  1.0000
  Ba  Ba3       1.0  0.0122231426750561  0.704091056633368  0.6698599299714847  1.0000
  Ba  Ba4       1.0  0.4442017172346144  0.136251429222396  0.3742177526291898  1.0000
  Ti  Ti1       1.0  0.7279414293398716  0.4201206316879322  0.522090423780082  1.0000
  Ti  Ti2       1.0  0.13454057314784518  0.8267387969632347  0.3021256995832534  1.0000
  Ti  Ti3       1.0  0.22846009561144967  0.9202503391998305  0.02201877288572903  1.0000
  O   O3        1.0  0.9328928432243407  0.6250202551806034  0.40349869576768127  1.0000
  O   O4        1.0  0.334177261073188  0.02605940444957528  0.15492818204036943  1.0000
  O   O5        1.0  0.8840674830266769  0.025674780302999932  0.1545345477356491  1.0000
  O   O6        1.0  0.12248969871078576  0.8144700905364902  0.8889156495563298  1.0000
  O   O7        1.0  0.5725381959946986  0.8147058053081937  0.8894468672045305  1.0000
  O   O8        1.0  0.5237892030760809  0.7113676819137964  0.6403808224163386  1.0000
  O   O9        1.0  0.5237586217170044  0.21551297227866598  0.6404617966004882  1.0000
  O   O10       1.0  0.019657355297437965  0.21567105928278735  0.6402944297113036  1.0000
  O   O11       1.0  0.9327601600056505  0.12904590661079368  0.40359422400233563  1.0000
  O   O12       1.0  0.43690880501883167  0.6247461615121163  0.40372254735085605  1.0000
  Ti  Ti4       1.0  0.32152925796947995  0.013541515883351474  0.7419566489406085  1.0000
