data_image109
_chemical_formula_structural       BaTiBaOTiO5
_chemical_formula_sum              "Ba2 Ti2 O6"
_cell_length_a       5.724485137422365
_cell_length_b       7.2300491117199535
_cell_length_c       5.429565906524659
_cell_angle_alpha    89.92510264815694
_cell_angle_beta     89.96335854180299
_cell_angle_gamma    117.75080583182134

_space_group_name_H-M_alt    "P 1"
_space_group_IT_number       1

loop_
  _space_group_symop_operation_xyz
  'x, y, z'

loop_
  _atom_site_type_symbol
  _atom_site_label
  _atom_site_symmetry_multiplicity
  _atom_site_fract_x
  _atom_site_fract_y
  _atom_site_fract_z
  _atom_site_occupancy
  Ba  Ba1       1.0  0.8369894987178256  0.16121165853504954  0.7979433119966157  1.0000
  Ti  Ti1       1.0  0.5466644864192796  0.5053049657664203  0.7972019589699498  1.0000
  Ba  Ba2       1.0  0.2319069307444335  0.6673545919507856  0.29710824953429243  1.0000
  O   O1        1.0  0.28735373003854087  0.35115934650837394  0.049675843146965264  1.0000
  Ti  Ti2       1.0  0.5222082011012208  0.3233014193770674  0.2974300522156032  1.0000
  O   O2        1.0  0.2874646111601149  0.3516730471509184  0.5450684892522959  1.0000
  O   O3        1.0  0.781320455263644  0.47676356171512785  0.5496863690609962  1.0000
  O   O4        1.0  0.5508031819233001  0.7517207093350784  0.7969004856364167  1.0000
  O   O5        1.0  0.5180972050527314  0.07692515138047791  0.2974410561287456  1.0000
  O   O6        1.0  0.7815585688462469  0.47746343038488304  0.04498518756488801  1.0000
