data_image879
_chemical_formula_structural       O2TiBaTiO4
_chemical_formula_sum              "O6 Ti2 Ba1"
_cell_length_a       3.838750444867988
_cell_length_b       5.136106597424048
_cell_length_c       7.3457279205322275
_cell_angle_alpha    95.82161143297763
_cell_angle_beta     105.29066999815903
_cell_angle_gamma    90.12204450448442

_space_group_name_H-M_alt    "P 1"
_space_group_IT_number       1

loop_
  _space_group_symop_operation_xyz
  'x, y, z'

loop_
  _atom_site_type_symbol
  _atom_site_label
  _atom_site_symmetry_multiplicity
  _atom_site_fract_x
  _atom_site_fract_y
  _atom_site_fract_z
  _atom_site_occupancy
  O   O1        1.0  0.13942538694169798  0.01480187291998103  0.11924574997346564  1.0000
  O   O2        1.0  0.4153354150641796  0.13698199256284904  0.6706978928748586  1.0000
  Ti  Ti1       1.0  0.9312475530916209  0.029181999031077478  0.7027864013028201  1.0000
  Ba  Ba1       1.0  0.6028993644181934  0.6093134734935507  0.046648393760524196  1.0000
  Ti  Ti2       1.0  0.27459860059561564  0.1894957589662484  0.3905617733279748  1.0000
  O   O3        1.0  0.9609929234332735  0.7151012746639337  0.7629633807863537  1.0000
  O   O4        1.0  0.06639442414140061  0.2038123408597104  0.974109921363522  1.0000
  O   O5        1.0  0.7905038402195114  0.08173843076790163  0.42266918657469466  1.0000
  O   O6        1.0  0.24483947620997545  0.5035570044254664  0.33035346761212553  1.0000
