data_image87
_chemical_formula_structural       OBa3Ti2BaO7
_chemical_formula_sum              "O8 Ba4 Ti2"
_cell_length_a       5.765972877233736
_cell_length_b       6.447142858513397
_cell_length_c       7.27824878692627
_cell_angle_alpha    98.40776004055289
_cell_angle_beta     90.03722020548545
_cell_angle_gamma    116.53973250034473

_space_group_name_H-M_alt    "P 1"
_space_group_IT_number       1

loop_
  _space_group_symop_operation_xyz
  'x, y, z'

loop_
  _atom_site_type_symbol
  _atom_site_label
  _atom_site_symmetry_multiplicity
  _atom_site_fract_x
  _atom_site_fract_y
  _atom_site_fract_z
  _atom_site_occupancy
  O   O1        1.0  0.06964642662893102  0.3664680478510843  0.6710570585538257  1.0000
  Ba  Ba1       1.0  0.8751179656357984  0.9773294408413143  0.8303023845735283  1.0000
  Ba  Ba2       1.0  0.5519993500784187  0.331410450918275  0.7366512754397619  1.0000
  Ba  Ba3       1.0  0.9098153716304574  0.04655680127007337  0.32961186497398354  1.0000
  Ti  Ti1       1.0  0.2048134667661249  0.6369631674271606  0.5624790834348615  1.0000
  Ti  Ti2       1.0  0.5767719874881411  0.38005003990300706  0.21833094789781174  1.0000
  Ba  Ba4       1.0  0.2196573972800274  0.6662205314268755  0.08703765690960993  1.0000
  O   O2        1.0  0.7662094088890707  0.262473920512338  0.07040984287133609  1.0000
  O   O3        1.0  0.727828253066943  0.683321169778563  0.05578613182295706  1.0000
  O   O4        1.0  0.3256376730093608  0.8808614169615945  0.7591351001718271  1.0000
  O   O5        1.0  0.9438069944326049  0.6299347214029655  0.41601514972955383  1.0000
  O   O6        1.0  0.4603099673990191  0.6308892498798464  0.4176163192606155  1.0000
  O   O7        1.0  0.4643304568213297  0.15498772324029603  0.37300955012517567  1.0000
  O   O8        1.0  0.2690553735742812  0.2629728192288002  0.07093064823925577  1.0000
