data_image954
_chemical_formula_structural       BaTiOBaTiOTiBaO2TiOBaO7
_chemical_formula_sum              "Ba4 Ti4 O12"
_cell_length_a       5.718408402531802
_cell_length_b       5.837077161281313
_cell_length_c       10.709487915039062
_cell_angle_alpha    78.41393247957544
_cell_angle_beta     73.83820247413755
_cell_angle_gamma    61.01263870086531

_space_group_name_H-M_alt    "P 1"
_space_group_IT_number       1

loop_
  _space_group_symop_operation_xyz
  'x, y, z'

loop_
  _atom_site_type_symbol
  _atom_site_label
  _atom_site_symmetry_multiplicity
  _atom_site_fract_x
  _atom_site_fract_y
  _atom_site_fract_z
  _atom_site_occupancy
  Ba  Ba1       1.0  0.27518429456997157  0.16710554886779894  0.7250106686137608  1.0000
  Ti  Ti1       1.0  0.5630332460576587  0.4318989078451661  0.9359209559750147  1.0000
  O   O1        1.0  0.6252113392358839  0.7287684457691734  0.8353610990143411  1.0000
  Ba  Ba2       1.0  0.45626826824883715  0.24357420655257056  0.32778189517941053  1.0000
  Ti  Ti2       1.0  0.8465833131868915  0.602318264816654  0.2158409070294709  1.0000
  O   O2        1.0  0.30347969179883894  0.4447401653392333  0.08037973909025964  1.0000
  Ti  Ti3       1.0  0.8761913679328032  0.7541155463777878  0.9136842747646049  1.0000
  Ba  Ba3       1.0  0.6825938845140802  0.5378070634005566  0.5488192098052433  1.0000
  O   O3        1.0  0.9562173766414952  0.7500433579461488  0.30945124571926125  1.0000
  O   O4        1.0  0.8168674519934271  0.4468066419198921  0.02445014145010439  1.0000
  Ti  Ti4       1.0  0.06273553444043845  0.8830249090190789  0.4548647015868178  1.0000
  O   O5        1.0  0.9657566240244609  0.26122147005633  0.2985956644974617  1.0000
  Ba  Ba4       1.0  0.21225362698921132  0.9734413360613309  0.10346351704263848  1.0000
  O   O6        1.0  0.48484354042903655  0.7282427341484109  0.2971845944121239  1.0000
  O   O7        1.0  0.7075015718500924  0.048634553786452574  0.5358212826054832  1.0000
  O   O8        1.0  0.21730608941307178  0.01819647614940242  0.5273177079587787  1.0000
  O   O9        1.0  0.7535591325073857  0.13920074379462014  0.8401011614909569  1.0000
  O   O10       1.0  0.17939716799741737  0.5521355467595775  0.5343358726794616  1.0000
  O   O11       1.0  0.7853792724897027  0.8910876920510616  0.07232349579247944  1.0000
  O   O12       1.0  0.23367700127366423  0.6024586893062625  0.832528236231564  1.0000
