data_image178
_chemical_formula_structural       Ba3Ti2O7
_chemical_formula_sum              "Ba3 Ti2 O7"
_cell_length_a       4.053223514279899
_cell_length_b       4.057051294227809
_cell_length_c       11.08941650390625
_cell_angle_alpha    100.56565640734429
_cell_angle_beta     100.53206565185465
_cell_angle_gamma    90.103630233377

_space_group_name_H-M_alt    "P 1"
_space_group_IT_number       1

loop_
  _space_group_symop_operation_xyz
  'x, y, z'

loop_
  _atom_site_type_symbol
  _atom_site_label
  _atom_site_symmetry_multiplicity
  _atom_site_fract_x
  _atom_site_fract_y
  _atom_site_fract_z
  _atom_site_occupancy
  Ba  Ba1       1.0  0.9842208758443716  0.43927183611586434  0.40606211372339757  1.0000
  Ba  Ba2       1.0  0.17249133768487063  0.6235449904123562  0.7723921146953432  1.0000
  Ba  Ba3       1.0  0.7959055398255966  0.2570530952365036  0.03969529049047303  1.0000
  Ti  Ti1       1.0  0.5964204490561829  0.021415239415434627  0.5956940500440928  1.0000
  Ti  Ti2       1.0  0.3720262077725181  0.8320481190727796  0.21640339398040867  1.0000
  O   O1        1.0  0.303404363601635  0.7660576214157633  0.03360931569183099  1.0000
  O   O2        1.0  0.5745097725452594  0.5544886310299636  0.5949329901943927  1.0000
  O   O3        1.0  0.9018476420162725  0.8561758639656443  0.21702979975035233  1.0000
  O   O4        1.0  0.3940656827473244  0.3657949391415054  0.21715642359951556  1.0000
  O   O5        1.0  0.6650449842791779  0.13879874848233809  0.7784850922980772  1.0000
  O   O6        1.0  0.48423519172504587  0.9539404058001753  0.4060623825805981  1.0000
  O   O7        1.0  0.0668131132909908  0.04502642164411586  0.5950553443712158  1.0000
