data_image277
_chemical_formula_structural       TiBaO2
_chemical_formula_sum              "Ti1 Ba1 O2"
_cell_length_a       3.3080261842675984
_cell_length_b       3.3106584969806203
_cell_length_c       6.309165000915527
_cell_angle_alpha    74.79146587282189
_cell_angle_beta     74.78737438255206
_cell_angle_gamma    60.037875388778005

_space_group_name_H-M_alt    "P 1"
_space_group_IT_number       1

loop_
  _space_group_symop_operation_xyz
  'x, y, z'

loop_
  _atom_site_type_symbol
  _atom_site_label
  _atom_site_symmetry_multiplicity
  _atom_site_fract_x
  _atom_site_fract_y
  _atom_site_fract_z
  _atom_site_occupancy
  Ti  Ti1       1.0  0.3739463322702041  0.7745896430359872  0.7160297364791451  1.0000
  Ba  Ba1       1.0  0.873527956485487  0.2747832841679808  0.21615882675968118  1.0000
  O   O1        1.0  0.6519846935332488  0.05286008007414484  0.8814126596532199  1.0000
  O   O2        1.0  0.09561987817617555  0.4964443652878686  0.5508260762693166  1.0000
