data_image1067
_chemical_formula_structural       Ba3O4TiO
_chemical_formula_sum              "Ba3 O5 Ti1"
_cell_length_a       6.173993116783497
_cell_length_b       6.172310385139646
_cell_length_c       6.30602264404297
_cell_angle_alpha    59.31206537947233
_cell_angle_beta     59.251877581783205
_cell_angle_gamma    61.49480146176407

_space_group_name_H-M_alt    "P 1"
_space_group_IT_number       1

loop_
  _space_group_symop_operation_xyz
  'x, y, z'

loop_
  _atom_site_type_symbol
  _atom_site_label
  _atom_site_symmetry_multiplicity
  _atom_site_fract_x
  _atom_site_fract_y
  _atom_site_fract_z
  _atom_site_occupancy
  Ba  Ba1       1.0  0.39035342498312436  0.7713369410792783  0.20266468517156297  1.0000
  Ba  Ba2       1.0  0.15443844152779104  0.5352271427164987  0.9386298488926897  1.0000
  Ba  Ba3       1.0  0.6541625676757541  0.035579598782000274  0.43902292710409846  1.0000
  O   O1        1.0  0.035807794639121565  0.9864045799825036  0.9880828564489502  1.0000
  O   O2        1.0  0.6063664614262536  0.41759520649010295  0.5565841653528879  1.0000
  O   O3        1.0  0.605184191253073  0.4159524944904954  0.9884895958786324  1.0000
  O   O4        1.0  0.09142840143110578  0.4719635025036355  0.5031007814447724  1.0000
  Ti  Ti1       1.0  0.880640214930764  0.26138654332504835  0.7129135998824898  1.0000
  O   O5        1.0  0.03629817832424656  0.9867504634752773  0.5572250565073351  1.0000
