data_image375
_chemical_formula_structural       BaTiO2Ti2BaOTiO7
_chemical_formula_sum              "Ba2 Ti4 O10"
_cell_length_a       3.815004698644328
_cell_length_b       6.34443780401298
_cell_length_c       9.584972381591797
_cell_angle_alpha    84.16579841153455
_cell_angle_beta     89.95263514158985
_cell_angle_gamma    89.99382801331552

_space_group_name_H-M_alt    "P 1"
_space_group_IT_number       1

loop_
  _space_group_symop_operation_xyz
  'x, y, z'

loop_
  _atom_site_type_symbol
  _atom_site_label
  _atom_site_symmetry_multiplicity
  _atom_site_fract_x
  _atom_site_fract_y
  _atom_site_fract_z
  _atom_site_occupancy
  Ba  Ba1       1.0  0.47588942668559453  0.015756655890604796  0.019962706986367332  1.0000
  Ti  Ti1       1.0  0.9575604691072472  0.5871096645905289  0.18490412117791794  1.0000
  O   O1        1.0  0.9833326830898668  0.6290465420744353  0.7004115627626298  1.0000
  O   O2        1.0  0.4857040889102137  0.6196218673539718  0.20787612782084666  1.0000
  Ti  Ti2       1.0  0.9720638491658354  0.9514360560892785  0.7164008302902409  1.0000
  Ti  Ti3       1.0  0.9816135529595801  0.1561104075050479  0.3363041203377133  1.0000
  Ba  Ba2       1.0  0.4811000209458469  0.6661909094668388  0.49543060001402595  1.0000
  O   O3        1.0  0.47286998406706215  0.4311446629906197  0.9001013287595871  1.0000
  Ti  Ti4       1.0  0.0027237413417438017  0.47095688273670866  0.8698969453558401  1.0000
  O   O4        1.0  0.9775614485863535  0.7026399696207715  0.9952792191202374  1.0000
  O   O5        1.0  0.4780649143349958  0.9169103376153056  0.7364511401694014  1.0000
  O   O6        1.0  0.9721177042280812  0.02897144851479137  0.5242827528953803  1.0000
  O   O7        1.0  0.9749861258394671  0.16655573132600085  0.832724940948104  1.0000
  O   O8        1.0  0.9900485492241134  0.8911726857086347  0.2701129332898712  1.0000
  O   O9        1.0  0.9716998661868044  0.2914745881452364  0.14789570866560522  1.0000
  O   O10       1.0  0.9875381529478058  0.428792347949075  0.39095820505216333  1.0000
