data_image723
_chemical_formula_structural       BaOTiBaO2
_chemical_formula_sum              "Ba2 O3 Ti1"
_cell_length_a       4.02403106117176
_cell_length_b       3.980007778321396
_cell_length_c       7.37778377532959
_cell_angle_alpha    105.81273687604528
_cell_angle_beta     105.91962874386017
_cell_angle_gamma    90.1364493327708

_space_group_name_H-M_alt    "P 1"
_space_group_IT_number       1

loop_
  _space_group_symop_operation_xyz
  'x, y, z'

loop_
  _atom_site_type_symbol
  _atom_site_label
  _atom_site_symmetry_multiplicity
  _atom_site_fract_x
  _atom_site_fract_y
  _atom_site_fract_z
  _atom_site_occupancy
  Ba  Ba1       1.0  0.6166187020392265  0.5272090273475109  0.9667003298372004  1.0000
  O   O1        1.0  0.8214285758969858  0.7327620820989926  0.3781911089639017  1.0000
  Ti  Ti1       1.0  0.9659774149346753  0.8765562664452543  0.6659581931199369  1.0000
  Ba  Ba2       1.0  0.31532029670573386  0.22585591193022594  0.36522416291898446  1.0000
  O   O2        1.0  0.46594428859448356  0.8764247090838392  0.6658850911719707  1.0000
  O   O3        1.0  0.11046650880768084  0.020540760160504736  0.9535752076591  1.0000
