data_image832
_chemical_formula_structural       TiOBaOBaOBaTiO4
_chemical_formula_sum              "Ti2 O7 Ba3"
_cell_length_a       4.080667609389485
_cell_length_b       4.070314471691442
_cell_length_c       11.085718154907227
_cell_angle_alpha    100.51192281446907
_cell_angle_beta     100.57736325498168
_cell_angle_gamma    90.05641327629034

_space_group_name_H-M_alt    "P 1"
_space_group_IT_number       1

loop_
  _space_group_symop_operation_xyz
  'x, y, z'

loop_
  _atom_site_type_symbol
  _atom_site_label
  _atom_site_symmetry_multiplicity
  _atom_site_fract_x
  _atom_site_fract_y
  _atom_site_fract_z
  _atom_site_occupancy
  Ti  Ti1       1.0  0.6952739380768133  0.5086146821367235  0.7376505667177435  1.0000
  O   O1        1.0  0.5748865131144147  0.44304983598917896  0.5550851386075831  1.0000
  Ba  Ba1       1.0  0.2759892877452369  0.12285400287533323  0.9272443154313135  1.0000
  O   O2        1.0  0.6695561555109638  0.04180505118536239  0.7382605302755958  1.0000
  Ba  Ba2       1.0  0.45753998676518104  0.31156662618201064  0.2933252658957911  1.0000
  O   O3        1.0  0.15763322085015033  0.5324296393154904  0.7383604081636516  1.0000
  Ba  Ba3       1.0  0.09223567435138169  0.9342567829422338  0.5613653654364315  1.0000
  Ti  Ti2       1.0  0.8843131589473784  0.7371261150831327  0.11691985299853142  1.0000
  O   O4        1.0  0.9464291271293561  0.8024848659380724  0.2994345687048964  1.0000
  O   O5        1.0  0.34586424429752943  0.7131088948541047  0.11614588669858542  1.0000
  O   O6        1.0  0.758750073008611  0.6227529528394002  0.9272112064664474  1.0000
  O   O7        1.0  0.8577498979813388  0.20362736433216136  0.11628575538266654  1.0000
