data_image462
_chemical_formula_structural       Ba5O3TiOBaTiOBaO6
_chemical_formula_sum              "Ba7 O11 Ti2"
_cell_length_a       5.513861383946481
_cell_length_b       6.710207175272106
_cell_length_c       13.139496803283691
_cell_angle_alpha    62.85436950682755
_cell_angle_beta     82.08517892810868
_cell_angle_gamma    68.9780229499188

_space_group_name_H-M_alt    "P 1"
_space_group_IT_number       1

loop_
  _space_group_symop_operation_xyz
  'x, y, z'

loop_
  _atom_site_type_symbol
  _atom_site_label
  _atom_site_symmetry_multiplicity
  _atom_site_fract_x
  _atom_site_fract_y
  _atom_site_fract_z
  _atom_site_occupancy
  Ba  Ba1       1.0  0.6125030159380578  0.20692634099229248  0.8233366894373252  1.0000
  Ba  Ba2       1.0  0.2344052085912291  0.6460437852473547  0.9958130060661912  1.0000
  Ba  Ba3       1.0  0.014070279788670927  0.5965614267032504  0.6421459622214608  1.0000
  Ba  Ba4       1.0  0.4233840314855356  0.9269155926881144  0.4095426097073037  1.0000
  Ba  Ba5       1.0  0.12220421380325472  0.6054000327719485  0.3105710619693888  1.0000
  O   O1        1.0  0.1817066654096422  0.9326941669106046  0.11306687869985116  1.0000
  O   O2        1.0  0.5688754179334009  0.5207056540917055  0.6002679098842235  1.0000
  O   O3        1.0  0.5725371063770353  0.1867143417968744  0.037926560172546184  1.0000
  Ti  Ti1       1.0  0.3236296448882113  0.9534556893984643  0.7043531289193956  1.0000
  O   O4        1.0  0.6649677780762515  0.9207583558830527  0.7060529359231079  1.0000
  Ba  Ba6       1.0  0.8331006423846965  0.25687332792282586  0.17705370816642943  1.0000
  Ti  Ti2       1.0  0.5230694626727747  0.8999212528904069  0.11474021115817178  1.0000
  O   O5        1.0  0.22101373404668362  0.15307501970394607  0.5478012843127337  1.0000
  Ba  Ba7       1.0  0.7245420352223257  0.24828788033248284  0.5085676971383021  1.0000
  O   O6        1.0  0.625629660325592  0.7005856571452804  0.27131467760487715  1.0000
  O   O7        1.0  0.27404521811180016  0.6666817631666261  0.7811794741274541  1.0000
  O   O8        1.0  0.2761567120921338  0.3330590212414714  0.2188046072725475  1.0000
  O   O9        1.0  0.6863256690702215  0.731085339962808  0.031248654097566046  1.0000
  O   O10       1.0  0.1601721943634072  0.1222703028513245  0.7878200332659202  1.0000
  O   O11       1.0  0.9231927273905722  0.9268993115489174  0.4095782435447632  1.0000
