data_image684
_chemical_formula_structural       BaTiO2
_chemical_formula_sum              "Ba1 Ti1 O2"
_cell_length_a       3.2960021782927886
_cell_length_b       3.297085145347684
_cell_length_c       6.321162223815919
_cell_angle_alpha    74.91914157276835
_cell_angle_beta     74.91541224041913
_cell_angle_gamma    60.069109907938966

_space_group_name_H-M_alt    "P 1"
_space_group_IT_number       1

loop_
  _space_group_symop_operation_xyz
  'x, y, z'

loop_
  _atom_site_type_symbol
  _atom_site_label
  _atom_site_symmetry_multiplicity
  _atom_site_fract_x
  _atom_site_fract_y
  _atom_site_fract_z
  _atom_site_occupancy
  Ba  Ba1       1.0  0.3323084097003612  0.008497082778955965  0.3940511739271662  1.0000
  Ti  Ti1       1.0  0.8323241226705338  0.5086282176862845  0.8940489136648251  1.0000
  O   O1        1.0  0.5543661458456411  0.23070277600861808  0.7279545492491231  1.0000
  O   O2        1.0  0.11025652367785005  0.7866971872245213  0.060150882454483225  1.0000
