data_image238
_chemical_formula_structural       Ba6OBaOTiO4
_chemical_formula_sum              "Ba7 O6 Ti1"
_cell_length_a       5.922759840947844
_cell_length_b       7.866904214887123
_cell_length_c       7.690340518951415
_cell_angle_alpha    90.15440576103832
_cell_angle_beta     90.12727624185935
_cell_angle_gamma    89.87085045234286

_space_group_name_H-M_alt    "P 1"
_space_group_IT_number       1

loop_
  _space_group_symop_operation_xyz
  'x, y, z'

loop_
  _atom_site_type_symbol
  _atom_site_label
  _atom_site_symmetry_multiplicity
  _atom_site_fract_x
  _atom_site_fract_y
  _atom_site_fract_z
  _atom_site_occupancy
  Ba  Ba1       1.0  0.6133541454630667  0.6417087731126594  0.9878767654340582  1.0000
  Ba  Ba2       1.0  0.12485038626929353  0.3768824877348629  0.7293535340358822  1.0000
  Ba  Ba3       1.0  0.10543664432544975  0.8987915098145998  0.25239402901989905  1.0000
  Ba  Ba4       1.0  0.12532265083204494  0.3767703333973388  0.2468982080278744  1.0000
  Ba  Ba5       1.0  0.6300967058342828  0.637083250499292  0.48795527672738  1.0000
  Ba  Ba6       1.0  0.6326102193902555  0.15165296165703682  0.9880207829680476  1.0000
  O   O1        1.0  0.7644477539176167  0.9746861771003743  0.48880922318439396  1.0000
  Ba  Ba7       1.0  0.10601746304707901  0.8989073288051221  0.7241416171958068  1.0000
  O   O2        1.0  0.13837300232081282  0.6296702574003331  0.48821253811537096  1.0000
  Ti  Ti1       1.0  0.5986371208964159  0.1712317134626815  0.4884305692730009  1.0000
  O   O3        1.0  0.2873106643712071  0.1367372992235093  0.48813805993176673  1.0000
  O   O4        1.0  0.6569118987145215  0.310949631908551  0.6777999752589039  1.0000
  O   O5        1.0  0.08715539428684332  0.1407689542141046  0.9879198349125329  1.0000
  O   O6        1.0  0.6569938696211683  0.3101030071366249  0.2993677989896653  1.0000
