data_image731
_chemical_formula_structural       BaTiO2
_chemical_formula_sum              "Ba1 Ti1 O2"
_cell_length_a       3.2872110575473372
_cell_length_b       3.282557989221721
_cell_length_c       7.124412059783935
_cell_angle_alpha    76.58467078166379
_cell_angle_beta     76.50785189648883
_cell_angle_gamma    59.82913857785723

_space_group_name_H-M_alt    "P 1"
_space_group_IT_number       1

loop_
  _space_group_symop_operation_xyz
  'x, y, z'

loop_
  _atom_site_type_symbol
  _atom_site_label
  _atom_site_symmetry_multiplicity
  _atom_site_fract_x
  _atom_site_fract_y
  _atom_site_fract_z
  _atom_site_occupancy
  Ba  Ba1       1.0  0.10221004443749925  0.33997630188301536  0.8720034580392502  1.0000
  Ti  Ti1       1.0  0.6027496081272792  0.8400284805778364  0.3719567196985314  1.0000
  O   O1        1.0  0.9793461954871198  0.21628739419129692  0.2434487005591749  1.0000
  O   O2        1.0  0.22569565987528314  0.4639745965661967  0.5004684162936348  1.0000
