data_image429
_chemical_formula_structural       Ba2OBaOBaTiOTiOBaO5
_chemical_formula_sum              "Ba5 O9 Ti2"
_cell_length_a       3.8640970478226104
_cell_length_b       6.682368863019015
_cell_length_c       11.3299560546875
_cell_angle_alpha    84.50461693565573
_cell_angle_beta     90.06885764371695
_cell_angle_gamma    90.08902718850456

_space_group_name_H-M_alt    "P 1"
_space_group_IT_number       1

loop_
  _space_group_symop_operation_xyz
  'x, y, z'

loop_
  _atom_site_type_symbol
  _atom_site_label
  _atom_site_symmetry_multiplicity
  _atom_site_fract_x
  _atom_site_fract_y
  _atom_site_fract_z
  _atom_site_occupancy
  Ba  Ba1       1.0  0.5436306959026532  0.0705235087001564  0.48491877753388707  1.0000
  Ba  Ba2       1.0  0.5407941353305618  0.7161166163575353  0.01757924984754466  1.0000
  O   O1        1.0  0.5426772517591508  0.3249592641519227  0.04455877614282948  1.0000
  Ba  Ba3       1.0  0.5385722795767991  0.5512009331814447  0.5752312637532488  1.0000
  O   O2        1.0  0.041961882280818374  0.5847850834946883  0.7579466067508476  1.0000
  Ba  Ba4       1.0  0.545270641344144  0.25045687025641256  0.827048034049722  1.0000
  Ti  Ti1       1.0  0.03975308918559501  0.6771602677016394  0.33042923051663214  1.0000
  O   O3        1.0  0.041242721202483325  0.7914320394695422  0.48936661816936106  1.0000
  Ti  Ti2       1.0  0.0423945176075171  0.8725435545611677  0.7377949680355518  1.0000
  O   O4        1.0  0.043804512534946854  0.15273308971052424  0.6491546145517938  1.0000
  Ba  Ba5       1.0  0.04268424241522965  0.18797577538242044  0.16466024251470016  1.0000
  O   O5        1.0  0.5425450904239876  0.872231119638569  0.703808009362356  1.0000
  O   O6        1.0  0.5407239134052536  0.7368736194297544  0.34052320856445845  1.0000
  O   O7        1.0  0.040830066323811046  0.7735013292729019  0.16671977327309095  1.0000
  O   O8        1.0  0.04261378339049062  0.9549859495689574  0.8887101800151017  1.0000
  O   O9        1.0  0.039943389799074726  0.4000007519970934  0.3635778089082865  1.0000
