data_image15
_chemical_formula_structural       Ba3O2TiO4TiBa
_chemical_formula_sum              "Ba4 O6 Ti2"
_cell_length_a       3.98092364285415
_cell_length_b       3.981973723287599
_cell_length_c       15.782635688781738
_cell_angle_alpha    97.180900867438
_cell_angle_beta     97.18131781980867
_cell_angle_gamma    90.0119552989423

_space_group_name_H-M_alt    "P 1"
_space_group_IT_number       1

loop_
  _space_group_symop_operation_xyz
  'x, y, z'

loop_
  _atom_site_type_symbol
  _atom_site_label
  _atom_site_symmetry_multiplicity
  _atom_site_fract_x
  _atom_site_fract_y
  _atom_site_fract_z
  _atom_site_occupancy
  Ba  Ba1       1.0  0.7599925420008689  0.7948429763968993  0.2881414937449004  1.0000
  Ba  Ba2       1.0  0.4987166076834652  0.5346867687732978  0.7624302949564742  1.0000
  Ba  Ba3       1.0  0.6302825593266128  0.6655618749301735  0.026592170113166398  1.0000
  O   O1        1.0  0.5598331214974707  0.09536254334667758  0.8848113766409159  1.0000
  O   O2        1.0  0.1956175589037336  0.7309994130965513  0.15903640981086029  1.0000
  Ti  Ti1       1.0  0.06742535834259034  0.10302479459604787  0.9002631287479116  1.0000
  O   O3        1.0  0.1279852298894966  0.1632889893106569  0.02183728726176552  1.0000
  O   O4        1.0  0.695760890275779  0.23081898933705547  0.15901499558815735  1.0000
  O   O5        1.0  0.05970242565608011  0.5953867829391762  0.884815610169607  1.0000
  O   O6        1.0  0.25848889202900205  0.29358592432680936  0.28485215292980265  1.0000
  Ti  Ti2       1.0  0.19896187799477127  0.23380671298804295  0.16460341443901835  1.0000
  Ba  Ba4       1.0  0.9129640502572841  0.9360481688370196  0.5597625663006718  1.0000
