data_image16
_chemical_formula_structural       BaOTiO4TiBa
_chemical_formula_sum              "Ba2 O5 Ti2"
_cell_length_a       5.691400798518157
_cell_length_b       5.693924408748014
_cell_length_c       5.813239574432373
_cell_angle_alpha    119.29112506959471
_cell_angle_beta     119.17109255557197
_cell_angle_gamma    89.91348483508122

_space_group_name_H-M_alt    "P 1"
_space_group_IT_number       1

loop_
  _space_group_symop_operation_xyz
  'x, y, z'

loop_
  _atom_site_type_symbol
  _atom_site_label
  _atom_site_symmetry_multiplicity
  _atom_site_fract_x
  _atom_site_fract_y
  _atom_site_fract_z
  _atom_site_occupancy
  Ba  Ba1       1.0  0.4936194078303527  0.7182026248719238  0.9808598049246017  1.0000
  O   O1        1.0  0.9949056587908965  0.21885657075245957  0.48200065807251236  1.0000
  Ti  Ti1       1.0  0.7639889387291525  0.48892015783189674  0.5215726008996412  1.0000
  O   O2        1.0  0.9940616234009143  0.7189461080614219  0.9809473862273156  1.0000
  O   O3        1.0  0.4939049532385464  0.719470021785647  0.48193925846544616  1.0000
  O   O4        1.0  0.49418111885261545  0.2188304627691646  0.48055004861118217  1.0000
  O   O5        1.0  0.9926687062012838  0.7174898763716382  0.4793902863431168  1.0000
  Ti  Ti2       1.0  0.2233025977004718  0.9482800824088083  0.4404287111046242  1.0000
  Ba  Ba2       1.0  0.9935873613228737  0.2185491716608096  0.9806845602996699  1.0000
