data_image508
_chemical_formula_structural       BaOBaO
_chemical_formula_sum              "Ba2 O2"
_cell_length_a       3.972562440965713
_cell_length_b       3.974949358554895
_cell_length_c       5.590022087097168
_cell_angle_alpha    90.2043071361132
_cell_angle_beta     90.20002459349458
_cell_angle_gamma    89.65310400352986

_space_group_name_H-M_alt    "P 1"
_space_group_IT_number       1

loop_
  _space_group_symop_operation_xyz
  'x, y, z'

loop_
  _atom_site_type_symbol
  _atom_site_label
  _atom_site_symmetry_multiplicity
  _atom_site_fract_x
  _atom_site_fract_y
  _atom_site_fract_z
  _atom_site_occupancy
  Ba  Ba1       1.0  0.8067049871027188  0.9364880525682219  0.39973495859329133  1.0000
  O   O1        1.0  0.8068407602268277  0.9366329009024519  0.8995726895148869  1.0000
  Ba  Ba2       1.0  0.3048267371965623  0.4345642993861076  0.8996687708224986  1.0000
  O   O2        1.0  0.30468863747113445  0.4344055968675604  0.39983300256174953  1.0000
