data_image819
_chemical_formula_structural       TiOBaOBaOTiBaO5
_chemical_formula_sum              "Ti2 O8 Ba3"
_cell_length_a       6.138509448715092
_cell_length_b       6.235903836414826
_cell_length_c       6.536104679107667
_cell_angle_alpha    103.66356340240642
_cell_angle_beta     108.92178420007947
_cell_angle_gamma    84.44524868352396

_space_group_name_H-M_alt    "P 1"
_space_group_IT_number       1

loop_
  _space_group_symop_operation_xyz
  'x, y, z'

loop_
  _atom_site_type_symbol
  _atom_site_label
  _atom_site_symmetry_multiplicity
  _atom_site_fract_x
  _atom_site_fract_y
  _atom_site_fract_z
  _atom_site_occupancy
  Ti  Ti1       1.0  0.9543634233515507  0.9993703255159915  0.19985330278206603  1.0000
  O   O1        1.0  0.5398567543317678  0.5009903870308743  0.5554151128988182  1.0000
  Ba  Ba1       1.0  0.823899682417123  0.44032004574304184  0.9633016542837157  1.0000
  O   O2        1.0  0.31625033919015055  0.12559904458373716  0.7629576053376749  1.0000
  Ba  Ba2       1.0  0.20164633435247  0.6800114875832305  0.7319685309418928  1.0000
  O   O3        1.0  0.8652258316872177  0.8621982659618966  0.9105303620904507  1.0000
  Ti  Ti2       1.0  0.44996480459780247  0.36395492441781874  0.26595934671490684  1.0000
  Ba  Ba3       1.0  0.5806598298703104  0.9234571342539342  0.5032860870517732  1.0000
  O   O4        1.0  0.0866742285830957  0.2371926794333458  0.7017626508103738  1.0000
  O   O5        1.0  0.7020047663020544  0.18166478646703824  0.23245907448180642  1.0000
  O   O6        1.0  0.97800721610759  0.7755482591832367  0.3361781263278664  1.0000
  O   O7        1.0  0.4254361519871033  0.587695194741283  0.12941218582646  1.0000
  O   O8        1.0  0.20204040971302167  0.1820395021376109  0.23315728197351204  1.0000
