data_image781
_chemical_formula_structural       Ti2OBa2TiOTiO4
_chemical_formula_sum              "Ti4 O6 Ba2"
_cell_length_a       4.058398679007505
_cell_length_b       6.960447568910394
_cell_length_c       6.810356616973877
_cell_angle_alpha    71.74886167200293
_cell_angle_beta     89.92700826852982
_cell_angle_gamma    89.80172895205585

_space_group_name_H-M_alt    "P 1"
_space_group_IT_number       1

loop_
  _space_group_symop_operation_xyz
  'x, y, z'

loop_
  _atom_site_type_symbol
  _atom_site_label
  _atom_site_symmetry_multiplicity
  _atom_site_fract_x
  _atom_site_fract_y
  _atom_site_fract_z
  _atom_site_occupancy
  Ti  Ti1       1.0  0.04265474329489839  0.26779233695866334  0.30617047147839915  1.0000
  Ti  Ti2       1.0  0.5433024804071052  0.14983889165305148  0.6205625452755253  1.0000
  O   O1        1.0  0.543246546488294  0.9924602201381176  0.9444206442611401  1.0000
  Ba  Ba1       1.0  0.5412492898916423  0.7806866036156751  0.3595594983684527  1.0000
  Ba  Ba2       1.0  0.04411954704356233  0.7514943390642361  0.9167522482489061  1.0000
  Ti  Ti3       1.0  0.5428066403089643  0.26436964837250115  0.9701485975071528  1.0000
  O   O2        1.0  0.042135729912193436  0.5397116826235605  0.33186894361012703  1.0000
  Ti  Ti4       1.0  0.04210870675341344  0.38231957955125  0.6557255017350164  1.0000
  O   O3        1.0  0.043669662007510573  0.0968885259451909  0.6154239785126314  1.0000
  O   O4        1.0  0.042334717684292145  0.3294493344952057  0.9771989838967404  1.0000
  O   O5        1.0  0.5431382446972098  0.20271934799470537  0.2991146938118461  1.0000
  O   O6        1.0  0.5417373232313177  0.43524858310711206  0.660900416407622  1.0000
