data_image851
_chemical_formula_structural       TiBaO4
_chemical_formula_sum              "Ti1 Ba1 O4"
_cell_length_a       3.8684991135629985
_cell_length_b       3.9486825101763507
_cell_length_c       6.555771827697754
_cell_angle_alpha    107.1315248622851
_cell_angle_beta     90.10317251256735
_cell_angle_gamma    90.00302144727276

_space_group_name_H-M_alt    "P 1"
_space_group_IT_number       1

loop_
  _space_group_symop_operation_xyz
  'x, y, z'

loop_
  _atom_site_type_symbol
  _atom_site_label
  _atom_site_symmetry_multiplicity
  _atom_site_fract_x
  _atom_site_fract_y
  _atom_site_fract_z
  _atom_site_occupancy
  Ti  Ti1       1.0  0.4976471233296443  0.003590899095847755  0.5697352719015112  1.0000
  Ba  Ba1       1.0  0.9972517785483519  0.7096699091776261  0.9865088977238077  1.0000
  O   O1        1.0  0.49799447859703744  0.5087568984326073  0.5833566021067461  1.0000
  O   O2        1.0  0.4977069979436772  0.16534350730599556  0.8976938073424392  1.0000
  O   O3        1.0  0.997940684322173  0.019875866417196256  0.6073377769565731  1.0000
  O   O4        1.0  0.49776018462538124  0.8551128513288709  0.27703183187115443  1.0000
