data_image909
_chemical_formula_structural       BaOBaTiO3
_chemical_formula_sum              "Ba2 O4 Ti1"
_cell_length_a       4.036548146828552
_cell_length_b       4.03882889378914
_cell_length_c       7.335422515869141
_cell_angle_alpha    105.98050701810016
_cell_angle_beta     105.98229585117059
_cell_angle_gamma    90.03189915135795

_space_group_name_H-M_alt    "P 1"
_space_group_IT_number       1

loop_
  _space_group_symop_operation_xyz
  'x, y, z'

loop_
  _atom_site_type_symbol
  _atom_site_label
  _atom_site_symmetry_multiplicity
  _atom_site_fract_x
  _atom_site_fract_y
  _atom_site_fract_z
  _atom_site_occupancy
  Ba  Ba1       1.0  0.96142605765587  0.012612915474993408  0.42164706011521347  1.0000
  O   O1        1.0  0.6051374599524314  0.15652048236930396  0.7090702945504355  1.0000
  Ba  Ba2       1.0  0.24919005161404617  0.3002558599571736  0.9964441760181788  1.0000
  Ti  Ti1       1.0  0.6053934659042762  0.6563823955853374  0.7090395816566896  1.0000
  O   O2        1.0  0.45769207839803044  0.508823383662601  0.41426654923814366  1.0000
  O   O3        1.0  0.7529319927765723  0.804167567393172  0.003940509019648188  1.0000
  O   O4        1.0  0.10513738932579958  0.6565291052030896  0.7090788861604965  1.0000
