data_image892
_chemical_formula_structural       Ba2OTiO4
_chemical_formula_sum              "Ba2 O5 Ti1"
_cell_length_a       4.138842620539132
_cell_length_b       5.975677477962327
_cell_length_c       6.69272518157959
_cell_angle_alpha    116.39108122560826
_cell_angle_beta     107.71465064400589
_cell_angle_gamma    90.05409730596637

_space_group_name_H-M_alt    "P 1"
_space_group_IT_number       1

loop_
  _space_group_symop_operation_xyz
  'x, y, z'

loop_
  _atom_site_type_symbol
  _atom_site_label
  _atom_site_symmetry_multiplicity
  _atom_site_fract_x
  _atom_site_fract_y
  _atom_site_fract_z
  _atom_site_occupancy
  Ba  Ba1       1.0  0.29446308305723495  0.8973074655689899  0.7977904127831911  1.0000
  Ba  Ba2       1.0  0.6348850611323266  0.23767720030479075  0.4777038369388525  1.0000
  O   O1        1.0  0.47213326559067803  0.567961308629585  0.13793131622463933  1.0000
  Ti  Ti1       1.0  0.9416174975326601  0.5675222519226955  0.13770905736332967  1.0000
  O   O2        1.0  0.08956301945825187  0.9182536284744046  0.3866988657033773  1.0000
  O   O3        1.0  0.8403446134284367  0.21711025554584615  0.8891239856382709  1.0000
  O   O4        1.0  0.8396340816789735  0.668690456233389  0.8878452718622959  1.0000
  O   O5        1.0  0.09023275851458196  0.46630722109384887  0.3871411964017763  1.0000
