data_image118
_chemical_formula_structural       Ba2O2BaOBa2O3Ti2OBaO
_chemical_formula_sum              "Ba6 O8 Ti2"
_cell_length_a       6.292788741436077
_cell_length_b       7.554959187187607
_cell_length_c       8.459630012512207
_cell_angle_alpha    89.84262130468375
_cell_angle_beta     90.08193744820016
_cell_angle_gamma    90.03088179185464

_space_group_name_H-M_alt    "P 1"
_space_group_IT_number       1

loop_
  _space_group_symop_operation_xyz
  'x, y, z'

loop_
  _atom_site_type_symbol
  _atom_site_label
  _atom_site_symmetry_multiplicity
  _atom_site_fract_x
  _atom_site_fract_y
  _atom_site_fract_z
  _atom_site_occupancy
  Ba  Ba1       1.0  0.9449781523831805  0.7162425933390772  0.2933245274897942  1.0000
  Ba  Ba2       1.0  0.44381121824639574  0.986169048542281  0.5593798804535378  1.0000
  O   O1        1.0  0.7034664591079269  0.8889949258803346  0.09752649971270932  1.0000
  O   O2        1.0  0.20422127664966075  0.27693354791514785  0.5959154254536299  1.0000
  Ba  Ba3       1.0  0.4448927429709421  0.4489529114805122  0.7920805365711266  1.0000
  O   O3        1.0  0.9464595980708715  0.97097437989625  0.5038687285181774  1.0000
  Ba  Ba4       1.0  0.9448366321028787  0.7885609573214112  0.8155338483051743  1.0000
  Ba  Ba5       1.0  0.9444610325710763  0.1794259238027204  0.060034838117537986  1.0000
  O   O4        1.0  0.44541798603186433  0.19441055754989883  0.0035652834223280083  1.0000
  O   O5        1.0  0.443933505039989  0.8235418513135916  0.8162278797148087  1.0000
  O   O6        1.0  0.1860095143847403  0.8894387756154631  0.09757491958085529  1.0000
  Ti  Ti1       1.0  0.9447346681666506  0.21825911088584218  0.5081674291389924  1.0000
  Ti  Ti2       1.0  0.44468672603063014  0.9471691699545001  0.008218193456168971  1.0000
  O   O7        1.0  0.6871002659139114  0.2748210286243853  0.5990164050026374  1.0000
  Ba  Ba6       1.0  0.4465649234669423  0.3779528774129221  0.3145780067265469  1.0000
  O   O8        1.0  0.9405749265952554  0.3424857895547416  0.3159048200857817  1.0000
