data_image54
_chemical_formula_structural       BaO2BaO2TiO
_chemical_formula_sum              "Ba2 O5 Ti1"
_cell_length_a       4.003585718627136
_cell_length_b       4.003180847529813
_cell_length_c       8.436100006103516
_cell_angle_alpha    101.41393178943501
_cell_angle_beta     103.74316963151173
_cell_angle_gamma    90.0336823116131

_space_group_name_H-M_alt    "P 1"
_space_group_IT_number       1

loop_
  _space_group_symop_operation_xyz
  'x, y, z'

loop_
  _atom_site_type_symbol
  _atom_site_label
  _atom_site_symmetry_multiplicity
  _atom_site_fract_x
  _atom_site_fract_y
  _atom_site_fract_z
  _atom_site_occupancy
  Ba  Ba1       1.0  0.7724825536902667  0.3630656231512511  0.21663548642518615  1.0000
  O   O1        1.0  0.14505527819203676  0.26389140142822953  0.9641126095308132  1.0000
  O   O2        1.0  0.3504025756930743  0.11532673451886996  0.3725064652620668  1.0000
  Ba  Ba2       1.0  0.5114225430461189  0.1664826853769873  0.6939864297592225  1.0000
  O   O3        1.0  0.27534287267594953  0.8317373493743232  0.22342120207547153  1.0000
  O   O4        1.0  0.018607262069000298  0.6671890891403479  0.7105157203142234  1.0000
  Ti  Ti1       1.0  0.1358658519550591  0.7832884916161196  0.9393110414658629  1.0000
  O   O5        1.0  0.640304752588377  0.7641859552946654  0.9560047661185526  1.0000
