data_image67
_chemical_formula_structural       BaTi2O2BaO4
_chemical_formula_sum              "Ba2 Ti2 O6"
_cell_length_a       5.657021347097155
_cell_length_b       5.654294322595564
_cell_length_c       5.888307571411133
_cell_angle_alpha    118.50354717192872
_cell_angle_beta     118.59509994201052
_cell_angle_gamma    89.89001721017742

_space_group_name_H-M_alt    "P 1"
_space_group_IT_number       1

loop_
  _space_group_symop_operation_xyz
  'x, y, z'

loop_
  _atom_site_type_symbol
  _atom_site_label
  _atom_site_symmetry_multiplicity
  _atom_site_fract_x
  _atom_site_fract_y
  _atom_site_fract_z
  _atom_site_occupancy
  Ba  Ba1       1.0  0.09202185986239943  0.19927134582741077  0.882462728100498  1.0000
  Ti  Ti1       1.0  0.3510193661212192  0.958613335498792  0.40041182372526163  1.0000
  Ti  Ti2       1.0  0.8508078590427474  0.4583772717338598  0.4000421800134352  1.0000
  O   O1        1.0  0.5732969616441214  0.18044913387770875  0.34488914006318033  1.0000
  O   O2        1.0  0.05841313074415679  0.6654317578973512  0.8158541164482198  1.0000
  Ba  Ba2       1.0  0.5920932645005837  0.6995669558149031  0.8827511898081363  1.0000
  O   O3        1.0  0.5732656663266578  0.6804569272166857  0.34498606886110517  1.0000
  O   O4        1.0  0.07371138398121713  0.6810233130091031  0.3455977469536723  1.0000
  O   O5        1.0  0.5589193363479091  0.16614501680065277  0.8163569336124196  1.0000
  O   O6        1.0  0.07325945461740564  0.18035746014104245  0.3447801288711301  1.0000
