data_image72
_chemical_formula_structural       Ba2OTiBaTiO2BaO5
_chemical_formula_sum              "Ba4 O8 Ti2"
_cell_length_a       4.040648800459912
_cell_length_b       4.041553114622778
_cell_length_c       14.639763832092287
_cell_angle_alpha    89.98763303219289
_cell_angle_beta     89.9764929925513
_cell_angle_gamma    90.03715190089392

_space_group_name_H-M_alt    "P 1"
_space_group_IT_number       1

loop_
  _space_group_symop_operation_xyz
  'x, y, z'

loop_
  _atom_site_type_symbol
  _atom_site_label
  _atom_site_symmetry_multiplicity
  _atom_site_fract_x
  _atom_site_fract_y
  _atom_site_fract_z
  _atom_site_occupancy
  Ba  Ba1       1.0  0.9888824328620414  0.9037656051798904  0.48785377332587704  1.0000
  Ba  Ba2       1.0  0.4882315230448164  0.4040417805488735  0.992828595376058  1.0000
  O   O1        1.0  0.4886930609364714  0.9039238469817639  0.3596917054186889  1.0000
  Ti  Ti1       1.0  0.9889226827238529  0.9037088674680112  0.8108272188663819  1.0000
  Ba  Ba3       1.0  0.4889223001008446  0.40391266807878934  0.6949993359222142  1.0000
  Ti  Ti2       1.0  0.48931787656698317  0.4037935138981017  0.3719511042244772  1.0000
  O   O2        1.0  0.4886682044382601  0.4038020978020458  0.4989674484738658  1.0000
  O   O3        1.0  0.9883830260917427  0.4038620619786216  0.3597155797744968  1.0000
  Ba  Ba4       1.0  0.9884987923839471  0.9041275326224152  0.1893920295476328  1.0000
  O   O4        1.0  0.48857147448924065  0.9039973771485071  0.09107781270695392  1.0000
  O   O5        1.0  0.9888345162933718  0.9040067130253111  0.6838474583618498  1.0000
  O   O6        1.0  0.9881206262023086  0.4041880430626378  0.09115528201892331  1.0000
  O   O7        1.0  0.48847029579957  0.9040082201268819  0.8231318913768728  1.0000
  O   O8        1.0  0.9886405351067818  0.40414410809354456  0.8230532186267339  1.0000
