data_image825
_chemical_formula_structural       Ba3Ti3O2TiO7
_chemical_formula_sum              "Ba3 Ti4 O9"
_cell_length_a       4.06300172297008
_cell_length_b       7.185442077647837
_cell_length_c       8.05852222442627
_cell_angle_alpha    104.61465257261744
_cell_angle_beta     89.68205720552992
_cell_angle_gamma    89.46606614343142

_space_group_name_H-M_alt    "P 1"
_space_group_IT_number       1

loop_
  _space_group_symop_operation_xyz
  'x, y, z'

loop_
  _atom_site_type_symbol
  _atom_site_label
  _atom_site_symmetry_multiplicity
  _atom_site_fract_x
  _atom_site_fract_y
  _atom_site_fract_z
  _atom_site_occupancy
  Ba  Ba1       1.0  0.1840998801227295  0.3336531695985008  0.45833381573195064  1.0000
  Ba  Ba2       1.0  0.18226425413604258  0.3977098401582709  0.9495025733312588  1.0000
  Ba  Ba3       1.0  0.20123770893814916  0.7723426179353617  0.31415963006761605  1.0000
  Ti  Ti1       1.0  0.6852753760343175  0.6584140299127124  0.7654881580677249  1.0000
  Ti  Ti2       1.0  0.6894381543900363  0.034314856397846205  0.6223053553802586  1.0000
  Ti  Ti3       1.0  0.6878536839840423  0.05262902379521803  0.12480441459179782  1.0000
  O   O1        1.0  0.18668298202598  0.02338726398219924  0.09784701341218281  1.0000
  O   O2        1.0  0.6841588978032369  0.6870875638376619  0.01718142278279031  1.0000
  Ti  Ti4       1.0  0.1890439765281367  0.9260174429634029  0.8336595968080168  1.0000
  O   O3        1.0  0.18641920614292334  0.6476068949499694  0.7515692488766189  1.0000
  O   O4        1.0  0.6926404830775192  0.7365089876324433  0.5374124708810617  1.0000
  O   O5        1.0  0.18908960742565473  0.047458877928064545  0.6316208024763883  1.0000
  O   O6        1.0  0.6861064612572523  0.3507087042609666  0.6949456512351577  1.0000
  O   O7        1.0  0.6873865372000373  0.9894079918374239  0.8623387643034472  1.0000
  O   O8        1.0  0.6793518967474207  0.31498320949406144  0.17748099347354876  1.0000
  O   O9        1.0  0.690149709246581  0.034590271024296834  0.36186402969281284  1.0000
