data_image185
_chemical_formula_structural       TiBa2O4BaOTiO2
_chemical_formula_sum              "Ti2 Ba3 O7"
_cell_length_a       3.996496964214019
_cell_length_b       3.9977844010594303
_cell_length_c       13.604243278503418
_cell_angle_alpha    88.96379445291319
_cell_angle_beta     88.91594895638688
_cell_angle_gamma    89.99843839155481

_space_group_name_H-M_alt    "P 1"
_space_group_IT_number       1

loop_
  _space_group_symop_operation_xyz
  'x, y, z'

loop_
  _atom_site_type_symbol
  _atom_site_label
  _atom_site_symmetry_multiplicity
  _atom_site_fract_x
  _atom_site_fract_y
  _atom_site_fract_z
  _atom_site_occupancy
  Ti  Ti1       1.0  0.0014119081539542449  0.9845087159896418  0.6568895883258684  1.0000
  Ba  Ba1       1.0  0.5124185201303796  0.4948330609817756  0.5040598518949835  1.0000
  Ba  Ba2       1.0  0.5311360280402866  0.513171634372035  0.20877680269401572  1.0000
  O   O1        1.0  0.013432347968677033  0.9953937702996791  0.5041698139014548  1.0000
  O   O2        1.0  0.5236339762278286  0.004368860109010919  0.351731120099713  1.0000
  O   O3        1.0  0.023281967885906817  0.5045221391655784  0.35173686799086984  1.0000
  O   O4        1.0  0.9946993679588348  0.9777280391916443  0.7993224166267292  1.0000
  Ba  Ba3       1.0  0.493779504674092  0.4770040170043308  0.799405275414212  1.0000
  O   O5        1.0  0.5044397803803243  0.9865322663998698  0.6564560176736147  1.0000
  Ti  Ti2       1.0  0.0210637234124575  0.003981172279487957  0.35130419650954803  1.0000
  O   O6        1.0  0.003928114324045538  0.48691057237590174  0.6564540917005107  1.0000
  O   O7        1.0  0.03210744982868157  0.013081475202387043  0.20886528511826613  1.0000
