data_image620
_chemical_formula_structural       BaO2TiBaOBaOTiO3
_chemical_formula_sum              "Ba3 O7 Ti2"
_cell_length_a       4.071780713129877
_cell_length_b       4.0667467492249685
_cell_length_c       11.101861953735352
_cell_angle_alpha    100.5077430878679
_cell_angle_beta     100.53063827164763
_cell_angle_gamma    90.02364167533787

_space_group_name_H-M_alt    "P 1"
_space_group_IT_number       1

loop_
  _space_group_symop_operation_xyz
  'x, y, z'

loop_
  _atom_site_type_symbol
  _atom_site_label
  _atom_site_symmetry_multiplicity
  _atom_site_fract_x
  _atom_site_fract_y
  _atom_site_fract_z
  _atom_site_occupancy
  Ba  Ba1       1.0  0.2414524665385851  0.3949663025040164  0.16546977184226255  1.0000
  O   O1        1.0  0.6642980008490584  0.3257922487057129  0.9885487422873407  1.0000
  O   O2        1.0  0.7581497743138997  0.909693233282914  0.17150168811875016  1.0000
  Ti  Ti1       1.0  0.44947481074410905  0.6422318214385336  0.6100397911131905  1.0000
  Ba  Ba2       1.0  0.8756539299685168  0.04079233619371577  0.43363148213458336  1.0000
  O   O3        1.0  0.3868618901798696  0.5257465559676051  0.427649514781965  1.0000
  Ba  Ba3       1.0  0.057560595516308696  0.2178767668713091  0.79964511690534  1.0000
  O   O4        1.0  0.9867588533326292  0.6188095310534744  0.6108516017742064  1.0000
  Ti  Ti2       1.0  0.6387055872024074  0.7934388014274606  0.9891384417666774  1.0000
  O   O5        1.0  0.4754842318251378  0.10978728938735051  0.6106947273912874  1.0000
  O   O6        1.0  0.17542089536272398  0.8167399342876726  0.9883914523832849  1.0000
  O   O7        1.0  0.5746691894728067  0.7177754025380468  0.7996292082709207  1.0000
