data_image866
_chemical_formula_structural       OBa2OTi2O2
_chemical_formula_sum              "O4 Ba2 Ti2"
_cell_length_a       3.693832638009943
_cell_length_b       4.087912962081145
_cell_length_c       8.547381401062012
_cell_angle_alpha    90.03758220673099
_cell_angle_beta     89.95878231241834
_cell_angle_gamma    89.98616454073522

_space_group_name_H-M_alt    "P 1"
_space_group_IT_number       1

loop_
  _space_group_symop_operation_xyz
  'x, y, z'

loop_
  _atom_site_type_symbol
  _atom_site_label
  _atom_site_symmetry_multiplicity
  _atom_site_fract_x
  _atom_site_fract_y
  _atom_site_fract_z
  _atom_site_occupancy
  O   O1        1.0  0.4677298594517439  0.7147909176702844  0.10856943846281623  1.0000
  Ba  Ba1       1.0  0.46753917188612387  0.21487162913348654  0.5147583851690057  1.0000
  Ba  Ba2       1.0  0.9670386443878246  0.714666247786728  0.8362907621039531  1.0000
  O   O2        1.0  0.9669600500544783  0.2147380135585141  0.24251646695240844  1.0000
  Ti  Ti1       1.0  0.4671022425768294  0.21480916910229805  0.1056528443297296  1.0000
  Ti  Ti2       1.0  0.9675632300420107  0.71472012912019  0.24543759919397182  1.0000
  O   O3        1.0  0.4669191208044505  0.21458032432806626  0.8732507029193646  1.0000
  O   O4        1.0  0.967673065803846  0.7149533820388858  0.47778879073419156  1.0000
