data_image843
_chemical_formula_structural       BaOTi2O2TiOBaTiO4BaO3
_chemical_formula_sum              "Ba3 O11 Ti4"
_cell_length_a       3.975634996564943
_cell_length_b       3.931007366479998
_cell_length_c       16.69367218017578
_cell_angle_alpha    89.97234023852693
_cell_angle_beta     89.95234144530733
_cell_angle_gamma    89.9373560072097

_space_group_name_H-M_alt    "P 1"
_space_group_IT_number       1

loop_
  _space_group_symop_operation_xyz
  'x, y, z'

loop_
  _atom_site_type_symbol
  _atom_site_label
  _atom_site_symmetry_multiplicity
  _atom_site_fract_x
  _atom_site_fract_y
  _atom_site_fract_z
  _atom_site_occupancy
  Ba  Ba1       1.0  0.5657460650737292  0.0019909164456233253  0.08153153774083038  1.0000
  O   O1        1.0  0.019865260390955816  0.4948608002073784  0.1235802093211662  1.0000
  Ti  Ti1       1.0  0.15693858111119363  0.49617568265614004  0.9364016200144568  1.0000
  Ti  Ti2       1.0  0.2903076254075588  0.4893794184548831  0.6563999850802326  1.0000
  O   O2        1.0  0.2400326034837718  0.991755627017751  0.6767752467226237  1.0000
  O   O3        1.0  0.3093259690297682  0.48741681023603733  0.5493473790083558  1.0000
  Ti  Ti3       1.0  0.38105754434495115  0.5106477296425633  0.37826782359058514  1.0000
  O   O4        1.0  0.8925605175255281  0.4742668904220159  0.38760186574545946  1.0000
  Ba  Ba2       1.0  0.8522701154849192  0.9894308375159437  0.516755264607285  1.0000
  Ti  Ti4       1.0  0.9438459367948692  0.5277724113584282  0.23065531046171855  1.0000
  O   O5        1.0  0.3799177196301757  0.9629708659586486  0.4082342566782988  1.0000
  O   O6        1.0  0.09887171885623565  0.9987186127258101  0.9562602971150063  1.0000
  O   O7        1.0  0.7458058451416044  0.49203860434396735  0.6799414463895757  1.0000
  O   O8        1.0  0.6050603888398581  0.49927064411939737  0.9637644815130474  1.0000
  Ba  Ba3       1.0  0.7200630720929063  0.9932902549858863  0.7963044492281028  1.0000
  O   O9        1.0  0.18498774818467215  0.4952464579336412  0.8292216757530451  1.0000
  O   O10       1.0  0.8884655468845143  0.9828954346527171  0.23118522305613848  1.0000
  O   O11       1.0  0.40858226686276633  0.4965051919771358  0.26796443961577543  1.0000
