data_image984
_chemical_formula_structural       Ba2O2TiBa2OTiO3
_chemical_formula_sum              "Ba4 O6 Ti2"
_cell_length_a       4.045158055891613
_cell_length_b       4.04632114015165
_cell_length_c       14.718449592590332
_cell_angle_alpha    89.95626880098462
_cell_angle_beta     89.98457993587283
_cell_angle_gamma    89.99861597603534

_space_group_name_H-M_alt    "P 1"
_space_group_IT_number       1

loop_
  _space_group_symop_operation_xyz
  'x, y, z'

loop_
  _atom_site_type_symbol
  _atom_site_label
  _atom_site_symmetry_multiplicity
  _atom_site_fract_x
  _atom_site_fract_y
  _atom_site_fract_z
  _atom_site_occupancy
  Ba  Ba1       1.0  0.6432444056994359  0.9545505339865413  0.9588941426748211  1.0000
  Ba  Ba2       1.0  0.6433237820701732  0.9549998550082814  0.6885305755348853  1.0000
  O   O1        1.0  0.6435196437938577  0.9560764809420002  0.4973764774712175  1.0000
  O   O2        1.0  0.14335004056204734  0.4549723981333107  0.6817209099518377  1.0000
  Ti  Ti1       1.0  0.14324109273556057  0.454703179184799  0.8146066780329001  1.0000
  Ba  Ba3       1.0  0.1435960718576878  0.4561347190026627  0.4905734673086805  1.0000
  Ba  Ba4       1.0  0.14371760878217918  0.45717745522675385  0.2202093822935559  1.0000
  O   O3        1.0  0.1432399758912226  0.9546570504906656  0.8261813813347125  1.0000
  Ti  Ti2       1.0  0.6436823650757705  0.9566286787144758  0.3644925163214148  1.0000
  O   O4        1.0  0.6436934031248309  0.4566389781845743  0.3529128813331376  1.0000
  O   O5        1.0  0.14369825288867705  0.9567034988662442  0.3528455282398604  1.0000
  O   O6        1.0  0.6432197576188978  0.45469121418134845  0.8262579662280325  1.0000
