data_image1073
_chemical_formula_structural       Ba2TiBaO6
_chemical_formula_sum              "Ba3 Ti1 O6"
_cell_length_a       6.166578732462954
_cell_length_b       6.170956396407462
_cell_length_c       6.3919196128845215
_cell_angle_alpha    61.760441002137185
_cell_angle_beta     61.8020988689454
_cell_angle_gamma    60.4609167075079

_space_group_name_H-M_alt    "P 1"
_space_group_IT_number       1

loop_
  _space_group_symop_operation_xyz
  'x, y, z'

loop_
  _atom_site_type_symbol
  _atom_site_label
  _atom_site_symmetry_multiplicity
  _atom_site_fract_x
  _atom_site_fract_y
  _atom_site_fract_z
  _atom_site_occupancy
  Ba  Ba1       1.0  0.3378099060339942  0.3993489989495088  0.9668904655745856  1.0000
  Ba  Ba2       1.0  0.09088951682813343  0.1445988880320776  0.6933900737754137  1.0000
  Ti  Ti1       1.0  0.6259385468599994  0.6385850418323998  0.1456587524051258  1.0000
  Ba  Ba3       1.0  0.8813028867988332  0.885220008845337  0.40230882430640275  1.0000
  O   O1        1.0  0.8836528111756223  0.4742180863013719  0.32980770872674003  1.0000
  O   O2        1.0  0.7698432092139625  0.8898389069911915  0.8978422793419969  1.0000
  O   O3        1.0  0.3142897823409193  0.8074891471832094  0.031075641622918017  1.0000
  O   O4        1.0  0.7552279805386009  0.3507718876033693  0.04080125443969093  1.0000
  O   O5        1.0  0.33218180362688626  0.5073860176944476  0.5170699211605986  1.0000
  O   O6        1.0  0.34275306836278135  0.7632999721831389  0.47470616009457967  1.0000
