data_image593
_chemical_formula_structural       Ba2TiBaOTiO5
_chemical_formula_sum              "Ba3 Ti2 O6"
_cell_length_a       4.035107865863629
_cell_length_b       4.0361728921306534
_cell_length_c       11.300397872924805
_cell_angle_alpha    100.26663099232752
_cell_angle_beta     100.25978077957049
_cell_angle_gamma    89.98085068184668

_space_group_name_H-M_alt    "P 1"
_space_group_IT_number       1

loop_
  _space_group_symop_operation_xyz
  'x, y, z'

loop_
  _atom_site_type_symbol
  _atom_site_label
  _atom_site_symmetry_multiplicity
  _atom_site_fract_x
  _atom_site_fract_y
  _atom_site_fract_z
  _atom_site_occupancy
  Ba  Ba1       1.0  0.509246317721179  0.980939150663123  0.23852638235391999  1.0000
  Ba  Ba2       1.0  0.6921979325288586  0.1640662333039686  0.6050137290712841  1.0000
  Ti  Ti1       1.0  0.11001317578834731  0.5818639589860229  0.4404246515290024  1.0000
  Ba  Ba3       1.0  0.3262038876581936  0.7977603877185994  0.8720667856066805  1.0000
  O   O1        1.0  0.1982106853149732  0.6701034148746201  0.6170676680320626  1.0000
  Ti  Ti2       1.0  0.9084290912299476  0.3799917795635795  0.03665912995043443  1.0000
  O   O2        1.0  0.41760727866316055  0.38920956154439773  0.0550695630124354  1.0000
  O   O3        1.0  0.9176589482312324  0.8891270562030901  0.05503215682728782  1.0000
  O   O4        1.0  0.8202075185471379  0.29172157533085513  0.8600220657331265  1.0000
  O   O5        1.0  0.600826315187995  0.5726339681158011  0.4220078112586615  1.0000
  O   O6        1.0  0.1007786021067394  0.07271665173438858  0.42204363726228034  1.0000
