data_image862
_chemical_formula_structural       BaOTiBaTiO7
_chemical_formula_sum              "Ba2 O8 Ti2"
_cell_length_a       3.9071118266099445
_cell_length_b       3.9041939768355767
_cell_length_c       12.702999114990234
_cell_angle_alpha    89.96300337278413
_cell_angle_beta     89.96117287955317
_cell_angle_gamma    89.94831163369265

_space_group_name_H-M_alt    "P 1"
_space_group_IT_number       1

loop_
  _space_group_symop_operation_xyz
  'x, y, z'

loop_
  _atom_site_type_symbol
  _atom_site_label
  _atom_site_symmetry_multiplicity
  _atom_site_fract_x
  _atom_site_fract_y
  _atom_site_fract_z
  _atom_site_occupancy
  Ba  Ba1       1.0  0.017722965943376523  0.07938919482870128  0.49285980831993254  1.0000
  O   O1        1.0  0.5171474773294603  0.07935131390197937  0.8925378617897859  1.0000
  Ti  Ti1       1.0  0.517953969196082  0.579959149026318  0.30859989578228536  1.0000
  Ba  Ba2       1.0  0.5172709736306295  0.5794553518482736  0.7417070496971472  1.0000
  Ti  Ti2       1.0  0.017189768053910908  0.07958529658534144  0.9267850073603346  1.0000
  O   O2        1.0  0.0170298037943116  0.5795083044360695  0.892367717144232  1.0000
  O   O3        1.0  0.01752780862492567  0.0802930836918335  0.060510434345460384  1.0000
  O   O4        1.0  0.017908946677607642  0.579652921305633  0.34241181073480004  1.0000
  O   O5        1.0  0.017438936588757788  0.07968748826948395  0.7104575794241619  1.0000
  O   O6        1.0  0.5179577106318607  0.07976008550398826  0.34250814500441623  1.0000
  O   O7        1.0  0.5175948076319964  0.5793118309772115  0.5233703306106111  1.0000
  O   O8        1.0  0.5179298699431213  0.5807576734731686  0.17485187402652155  1.0000
