data_image604
_chemical_formula_structural       Ba2OTi2OBaO5
_chemical_formula_sum              "Ba3 O7 Ti2"
_cell_length_a       4.063997280868809
_cell_length_b       4.073451055150028
_cell_length_c       11.11135196685791
_cell_angle_alpha    100.53302199478195
_cell_angle_beta     100.50577597736351
_cell_angle_gamma    89.86565257047997

_space_group_name_H-M_alt    "P 1"
_space_group_IT_number       1

loop_
  _space_group_symop_operation_xyz
  'x, y, z'

loop_
  _atom_site_type_symbol
  _atom_site_label
  _atom_site_symmetry_multiplicity
  _atom_site_fract_x
  _atom_site_fract_y
  _atom_site_fract_z
  _atom_site_occupancy
  Ba  Ba1       1.0  0.146906868918415  0.6139136633509708  0.2397491209740176  1.0000
  Ba  Ba2       1.0  0.9585027172756896  0.4250123577818466  0.8737458842769226  1.0000
  O   O1        1.0  0.7371562529000285  0.693664273511699  0.4286632301025791  1.0000
  Ti  Ti1       1.0  0.5330970756801783  0.9988524428140197  0.050148608800948305  1.0000
  Ti  Ti2       1.0  0.7606511686287435  0.22893900777651505  0.42937973294858506  1.0000
  O   O2        1.0  0.5570219724726962  0.5334120683307664  0.05078643004744816  1.0000
  Ba  Ba3       1.0  0.3352726645137037  0.8028649370819237  0.6057244027788526  1.0000
  O   O3        1.0  0.06598250890367884  0.024154909415585023  0.05083663238272395  1.0000
  O   O4        1.0  0.6472642605547361  0.11348173034550488  0.23968919867844232  1.0000
  O   O5        1.0  0.46761675070449155  0.9343085583957451  0.8679394732932242  1.0000
  O   O6        1.0  0.826900102171887  0.29265996075044926  0.6115343698510397  1.0000
  O   O7        1.0  0.22855010647902352  0.20303788082126376  0.42857169054431804  1.0000
