data_image513
_chemical_formula_structural       OTiO
_chemical_formula_sum              "O2 Ti1"
_cell_length_a       3.4355261139785966
_cell_length_b       3.4367157624601954
_cell_length_c       3.4385910034179688
_cell_angle_alpha    59.6560285271517
_cell_angle_beta     59.65275598017008
_cell_angle_gamma    59.745458353681705

_space_group_name_H-M_alt    "P 1"
_space_group_IT_number       1

loop_
  _space_group_symop_operation_xyz
  'x, y, z'

loop_
  _atom_site_type_symbol
  _atom_site_label
  _atom_site_symmetry_multiplicity
  _atom_site_fract_x
  _atom_site_fract_y
  _atom_site_fract_z
  _atom_site_occupancy
  O   O1        1.0  0.6285749186566165  0.19086564817865412  0.9757778529545088  1.0000
  Ti  Ti1       1.0  0.8782498515300083  0.44153454782605867  0.2249212478023867  1.0000
  O   O2        1.0  0.12816185161990348  0.6905963914520192  0.47558850611600006  1.0000
