data_image33
_chemical_formula_structural       OTiOBa2OTiOTiO2BaTiO2
_chemical_formula_sum              "O8 Ti4 Ba3"
_cell_length_a       3.771880775361317
_cell_length_b       6.096486067044998
_cell_length_c       11.629095077514648
_cell_angle_alpha    91.29051211962424
_cell_angle_beta     89.96122068833199
_cell_angle_gamma    89.95081148106982

_space_group_name_H-M_alt    "P 1"
_space_group_IT_number       1

loop_
  _space_group_symop_operation_xyz
  'x, y, z'

loop_
  _atom_site_type_symbol
  _atom_site_label
  _atom_site_symmetry_multiplicity
  _atom_site_fract_x
  _atom_site_fract_y
  _atom_site_fract_z
  _atom_site_occupancy
  O   O1        1.0  0.942585904853451  0.23506746121407798  0.2644677882412333  1.0000
  Ti  Ti1       1.0  0.9428796282713012  0.44120701207130486  0.14511562338693793  1.0000
  O   O2        1.0  0.9430525018473436  0.21426152909866236  0.011284317184713335  1.0000
  Ba  Ba1       1.0  0.4427706749814505  0.9501778664614265  0.3331131763239328  1.0000
  Ba  Ba2       1.0  0.44313165136202554  0.929617521932684  0.9199083469606794  1.0000
  O   O3        1.0  0.9431488191248233  0.22483377844384123  0.5085747827224961  1.0000
  Ti  Ti2       1.0  0.9431479494209227  0.43408082625168326  0.9059304429350062  1.0000
  O   O4        1.0  0.9429695866680939  0.6600496890204848  0.012455798802990936  1.0000
  Ti  Ti3       1.0  0.942834960898022  0.9607419286349829  0.6055581148372494  1.0000
  O   O5        1.0  0.4433044266621636  0.4249550933850662  0.8598951989933514  1.0000
  O   O6        1.0  0.9431182502585522  0.6610774549762165  0.26182290295098765  1.0000
  Ba  Ba3       1.0  0.4428464158358021  0.4901406300428132  0.6384260320269776  1.0000
  Ti  Ti4       1.0  0.9429838119307092  0.45487731225754763  0.3920351545567329  1.0000
  O   O7        1.0  0.9431063239022153  0.8116244478964072  0.7435951520993718  1.0000
  O   O8        1.0  0.9428424119478532  0.7186596105759835  0.5006336084633384  1.0000
