data_image133
_chemical_formula_structural       BaTiOBaTiO3
_chemical_formula_sum              "Ba2 Ti2 O4"
_cell_length_a       3.7887231467969857
_cell_length_b       3.794421684224917
_cell_length_c       10.923460960388182
_cell_angle_alpha    90.00444212736437
_cell_angle_beta     90.09884900612157
_cell_angle_gamma    90.01948220401505

_space_group_name_H-M_alt    "P 1"
_space_group_IT_number       1

loop_
  _space_group_symop_operation_xyz
  'x, y, z'

loop_
  _atom_site_type_symbol
  _atom_site_label
  _atom_site_symmetry_multiplicity
  _atom_site_fract_x
  _atom_site_fract_y
  _atom_site_fract_z
  _atom_site_occupancy
  Ba  Ba1       1.0  0.013947676037023604  0.023462215228042538  0.5501322978465368  1.0000
  Ti  Ti1       1.0  0.5151724819916718  0.5239179437128252  0.7902423140456972  1.0000
  O   O1        1.0  0.01550818932632208  0.5238645570790107  0.8570611205035527  1.0000
  Ba  Ba2       1.0  0.5169792229282004  0.5240347919189376  0.16412107911996457  1.0000
  Ti  Ti2       1.0  0.015988950969178864  0.02384272520680856  0.9235200062935585  1.0000
  O   O2        1.0  0.016829012949840176  0.024115246639646877  0.09561716357487748  1.0000
  O   O3        1.0  0.5140069515363159  0.5235517037957409  0.6180255509726962  1.0000
  O   O4        1.0  0.5156362867816983  0.023946289191536553  0.8559002696465963  1.0000
