data_image613
_chemical_formula_structural       BaTiOBaO2
_chemical_formula_sum              "Ba2 Ti1 O3"
_cell_length_a       3.9515447020789485
_cell_length_b       4.048392124103661
_cell_length_c       7.389990806579589
_cell_angle_alpha    105.85369188824657
_cell_angle_beta     105.49901189943087
_cell_angle_gamma    90.02616222380186

_space_group_name_H-M_alt    "P 1"
_space_group_IT_number       1

loop_
  _space_group_symop_operation_xyz
  'x, y, z'

loop_
  _atom_site_type_symbol
  _atom_site_label
  _atom_site_symmetry_multiplicity
  _atom_site_fract_x
  _atom_site_fract_y
  _atom_site_fract_z
  _atom_site_occupancy
  Ba  Ba1       1.0  0.9318609756924222  0.999159787165251  0.925485597370494  1.0000
  Ti  Ti1       1.0  0.5821739438738929  0.6493896522717459  0.22605831879095528  1.0000
  O   O1        1.0  0.4385579570023601  0.5061056029734413  0.9393411827755062  1.0000
  Ba  Ba2       1.0  0.23234864109284167  0.29956160258160774  0.5263973477191146  1.0000
  O   O2        1.0  0.5821313932048845  0.14933741333444403  0.2259221361801149  1.0000
  O   O3        1.0  0.7255857487695273  0.7925108192647186  0.512463902805071  1.0000
