data_image760
_chemical_formula_structural       Ba2TiO6
_chemical_formula_sum              "Ba2 Ti1 O6"
_cell_length_a       5.32692813166481
_cell_length_b       6.362217814503166
_cell_length_c       5.930632591247559
_cell_angle_alpha    63.64994565645165
_cell_angle_beta     63.447265829484294
_cell_angle_gamma    65.4749928655325

_space_group_name_H-M_alt    "P 1"
_space_group_IT_number       1

loop_
  _space_group_symop_operation_xyz
  'x, y, z'

loop_
  _atom_site_type_symbol
  _atom_site_label
  _atom_site_symmetry_multiplicity
  _atom_site_fract_x
  _atom_site_fract_y
  _atom_site_fract_z
  _atom_site_occupancy
  Ba  Ba1       1.0  0.9690114374006518  0.5820864492592086  0.8724320367410991  1.0000
  Ba  Ba2       1.0  0.42152183614974925  0.13608325106141075  0.417332298361911  1.0000
  Ti  Ti1       1.0  0.19545180075176427  0.8586306987395798  0.14514440916137641  1.0000
  O   O1        1.0  0.9358472833899044  0.12061882839057299  0.9527992143542483  1.0000
  O   O2        1.0  0.4559418349102162  0.5977229738670593  0.33635760582766044  1.0000
  O   O3        1.0  0.3839012398223951  0.12246647488006607  0.9526937055291799  1.0000
  O   O4        1.0  0.9842709238719081  0.9894351182247403  0.4372001010636444  1.0000
  O   O5        1.0  0.4063527682143945  0.7285820139632873  0.8524797393875848  1.0000
  O   O6        1.0  0.006256980990136692  0.595733995530231  0.3368114657145256  1.0000
