data_image40
_chemical_formula_structural       Ti2BaO2BaTiBaO8
_chemical_formula_sum              "Ti3 Ba3 O10"
_cell_length_a       5.661741760972769
_cell_length_b       6.094265197493547
_cell_length_c       9.92042350769043
_cell_angle_alpha    101.3916779788351
_cell_angle_beta     89.63038683786381
_cell_angle_gamma    109.81435091514138

_space_group_name_H-M_alt    "P 1"
_space_group_IT_number       1

loop_
  _space_group_symop_operation_xyz
  'x, y, z'

loop_
  _atom_site_type_symbol
  _atom_site_label
  _atom_site_symmetry_multiplicity
  _atom_site_fract_x
  _atom_site_fract_y
  _atom_site_fract_z
  _atom_site_occupancy
  Ti  Ti1       1.0  0.5173777271981084  0.688256395902902  0.23088917143362808  1.0000
  Ti  Ti2       1.0  0.3645567616143954  0.3801731219871092  0.8907710881337798  1.0000
  Ba  Ba1       1.0  0.8501504691026835  0.3632612880835614  0.33702616960233195  1.0000
  O   O1        1.0  0.13793352871858683  0.4921473572054154  0.8088764409845086  1.0000
  O   O2        1.0  0.7249436688154322  0.19970956844138116  0.5710160750100359  1.0000
  Ba  Ba2       1.0  0.08409527789856883  0.8455976703556117  0.036125133258462866  1.0000
  Ti  Ti3       1.0  0.8666829860008365  0.4710436954000074  0.6921228801376735  1.0000
  Ba  Ba3       1.0  0.47890093728754973  0.8002752646859138  0.6276831002624932  1.0000
  O   O3        1.0  0.22251079197460888  0.4277649800143041  0.07608097374411883  1.0000
  O   O4        1.0  0.36716203328074487  0.556873382815476  0.3726205453123842  1.0000
  O   O5        1.0  0.47237481190988384  0.9541009159756086  0.20039307952395752  1.0000
  O   O6        1.0  0.965758623889296  0.677293105576901  0.5841316894078573  1.0000
  O   O7        1.0  0.854314275064693  0.7840889104803903  0.26669463193430387  1.0000
  O   O8        1.0  0.5673877708192498  0.45506367386102964  0.06723957274741797  1.0000
  O   O9        1.0  0.6480621674258105  0.5717065435795667  0.8119149030090685  1.0000
  O   O10       1.0  0.3028200018921883  0.07633194677671039  0.8337746284164216  1.0000
