data_image519
_chemical_formula_structural       OBaO3BaTiBaO2TiO
_chemical_formula_sum              "O7 Ba3 Ti2"
_cell_length_a       3.9655180020134675
_cell_length_b       4.0468543535371975
_cell_length_c       11.447943687438967
_cell_angle_alpha    100.22128535598668
_cell_angle_beta     90.00265944799301
_cell_angle_gamma    90.01287058115186

_space_group_name_H-M_alt    "P 1"
_space_group_IT_number       1

loop_
  _space_group_symop_operation_xyz
  'x, y, z'

loop_
  _atom_site_type_symbol
  _atom_site_label
  _atom_site_symmetry_multiplicity
  _atom_site_fract_x
  _atom_site_fract_y
  _atom_site_fract_z
  _atom_site_occupancy
  O   O1        1.0  0.9869363504196295  0.04736232912041277  0.9110623073004581  1.0000
  Ba  Ba1       1.0  0.4870437620224124  0.5472987319886032  0.9110917218359063  1.0000
  O   O2        1.0  0.48675067510712555  0.13877683926781276  0.09333538282689668  1.0000
  O   O3        1.0  0.4870439327712961  0.9559705204703097  0.728837316527068  1.0000
  O   O4        1.0  0.9871859562479048  0.8687467327770486  0.5543585360175324  1.0000
  Ba  Ba2       1.0  0.48722002003285636  0.3715326618296863  0.5600927021668669  1.0000
  Ti  Ti1       1.0  0.9869039584840813  0.1384850786153405  0.09423514247376516  1.0000
  Ba  Ba3       1.0  0.48685685021078773  0.723086061853196  0.2621969216663512  1.0000
  O   O5        1.0  0.9866353320451013  0.22612645881505905  0.26772418830503847  1.0000
  O   O6        1.0  0.9871608693461122  0.45570100389425383  0.7283524324620672  1.0000
  Ti  Ti2       1.0  0.9873426851304584  0.9558929373490762  0.728032235600797  1.0000
  O   O7        1.0  0.9867379984683025  0.6392572528598959  0.09382076525632609  1.0000
