data_image298
_chemical_formula_structural       OBaTiO
_chemical_formula_sum              "O2 Ba1 Ti1"
_cell_length_a       3.3103246405234037
_cell_length_b       3.316406846266961
_cell_length_c       6.320096015930175
_cell_angle_alpha    74.83223458651113
_cell_angle_beta     74.84501376192293
_cell_angle_gamma    60.03605009334206

_space_group_name_H-M_alt    "P 1"
_space_group_IT_number       1

loop_
  _space_group_symop_operation_xyz
  'x, y, z'

loop_
  _atom_site_type_symbol
  _atom_site_label
  _atom_site_symmetry_multiplicity
  _atom_site_fract_x
  _atom_site_fract_y
  _atom_site_fract_z
  _atom_site_occupancy
  O   O1        1.0  0.3286024045945785  0.6052747872890613  0.46607215969389976  1.0000
  Ba  Ba1       1.0  0.5503610237035331  0.8269027205324696  0.8009839317118872  1.0000
  Ti  Ti1       1.0  0.05025611506743659  0.32702124672487737  0.3010049820801339  1.0000
  O   O2        1.0  0.7720233493462914  0.04868189753415487  0.13591548785296634  1.0000
