data_image291
_chemical_formula_structural       TiOTiO2Ba
_chemical_formula_sum              "Ti2 O3 Ba1"
_cell_length_a       3.6156255141660876
_cell_length_b       4.134997366519802
_cell_length_c       6.1326961517333975
_cell_angle_alpha    109.75850349290977
_cell_angle_beta     107.1304156545952
_cell_angle_gamma    90.01839612405956

_space_group_name_H-M_alt    "P 1"
_space_group_IT_number       1

loop_
  _space_group_symop_operation_xyz
  'x, y, z'

loop_
  _atom_site_type_symbol
  _atom_site_label
  _atom_site_symmetry_multiplicity
  _atom_site_fract_x
  _atom_site_fract_y
  _atom_site_fract_z
  _atom_site_occupancy
  Ti  Ti1       1.0  0.9542552009303359  0.778891724603993  0.06862629221390598  1.0000
  O   O1        1.0  0.14782781183326  0.9728353087315431  0.4559917257101568  1.0000
  Ti  Ti2       1.0  0.3416328691321126  0.16700040152744874  0.843762404364388  1.0000
  O   O2        1.0  0.95152467242356  0.27622996080467577  0.06337998705260421  1.0000
  O   O3        1.0  0.3443241377919408  0.6695703428568824  0.8488170702933889  1.0000
  Ba  Ba1       1.0  0.6479419768594081  0.4729242687972571  0.45616325905631294  1.0000
