data_image113
_chemical_formula_structural       Ba2TiO4
_chemical_formula_sum              "Ba2 Ti1 O4"
_cell_length_a       4.0412187531074455
_cell_length_b       4.041297025462676
_cell_length_c       7.318623065948487
_cell_angle_alpha    106.04448505631507
_cell_angle_beta     105.99006181878961
_cell_angle_gamma    89.99357506227584

_space_group_name_H-M_alt    "P 1"
_space_group_IT_number       1

loop_
  _space_group_symop_operation_xyz
  'x, y, z'

loop_
  _atom_site_type_symbol
  _atom_site_label
  _atom_site_symmetry_multiplicity
  _atom_site_fract_x
  _atom_site_fract_y
  _atom_site_fract_z
  _atom_site_occupancy
  Ba  Ba1       1.0  0.891961458163004  0.38238313155471004  0.6545533704134427  1.0000
  Ba  Ba2       1.0  0.6046051244486108  0.09459665338133083  0.07969403114501879  1.0000
  Ti  Ti1       1.0  0.24828162093518466  0.7384089931237093  0.36724741756999707  1.0000
  O   O1        1.0  0.10084213607541914  0.5908472346445881  0.07200095092353684  1.0000
  O   O2        1.0  0.7483747321018805  0.7385783479537975  0.3673052744252897  1.0000
  O   O3        1.0  0.39593403182768616  0.886417240531203  0.6625874100996388  1.0000
  O   O4        1.0  0.24825910235270812  0.23865400325487407  0.36723398991134015  1.0000
