data_image1048
_chemical_formula_structural       TiBa2TiOBaOBaO5
_chemical_formula_sum              "Ti2 Ba4 O7"
_cell_length_a       6.83974034987776
_cell_length_b       6.428831376712786
_cell_length_c       7.421534538269042
_cell_angle_alpha    63.357587555253595
_cell_angle_beta     66.59788244631595
_cell_angle_gamma    61.592311914308446

_space_group_name_H-M_alt    "P 1"
_space_group_IT_number       1

loop_
  _space_group_symop_operation_xyz
  'x, y, z'

loop_
  _atom_site_type_symbol
  _atom_site_label
  _atom_site_symmetry_multiplicity
  _atom_site_fract_x
  _atom_site_fract_y
  _atom_site_fract_z
  _atom_site_occupancy
  Ti  Ti1       1.0  0.590801421640679  0.16027157874568865  0.2699058002382065  1.0000
  Ba  Ba1       1.0  0.23448121325170404  0.8603084824286908  0.24167250352488864  1.0000
  Ba  Ba2       1.0  0.8805209868636684  0.5340083037973956  0.16961628247546107  1.0000
  Ti  Ti2       1.0  0.8035929664052269  0.861714564013642  0.6636609169199014  1.0000
  O   O1        1.0  0.9000609935268167  0.130402864386597  0.5408747461670617  1.0000
  Ba  Ba3       1.0  0.5120145024311795  0.4215841831581108  0.7635890613804561  1.0000
  O   O2        1.0  0.7038342350848351  0.8243380525909025  0.46883347976695205  1.0000
  Ba  Ba4       1.0  0.15681832175461116  0.17713779918862596  0.6912205645139518  1.0000
  O   O3        1.0  0.33801054726616  0.24165497047171136  0.1806204589834964  1.0000
  O   O4        1.0  0.49180144888523236  0.40015477016377854  0.39307113152448625  1.0000
  O   O5        1.0  0.5504425092947117  0.9198689601359028  0.8793238899056622  1.0000
  O   O6        1.0  0.05777186363590109  0.5985545281547969  0.7532407922546366  1.0000
  O   O7        1.0  0.843752476051778  0.18432900994235424  0.053797557774916044  1.0000
