data_image680
_chemical_formula_structural       TiOBaO
_chemical_formula_sum              "Ti1 O2 Ba1"
_cell_length_a       3.295777858188867
_cell_length_b       3.2945816218565755
_cell_length_c       6.295198917388915
_cell_angle_alpha    74.89512677162223
_cell_angle_beta     74.88582424815696
_cell_angle_gamma    60.13350432100575

_space_group_name_H-M_alt    "P 1"
_space_group_IT_number       1

loop_
  _space_group_symop_operation_xyz
  'x, y, z'

loop_
  _atom_site_type_symbol
  _atom_site_label
  _atom_site_symmetry_multiplicity
  _atom_site_fract_x
  _atom_site_fract_y
  _atom_site_fract_z
  _atom_site_occupancy
  Ti  Ti1       1.0  0.025495366462881485  0.6928578088946924  0.47559389221956794  1.0000
  O   O1        1.0  0.3035575228488321  0.9709691883698383  0.6412587996174303  1.0000
  Ba  Ba1       1.0  0.5252889863352712  0.19265330501130784  0.9755134476654646  1.0000
  O   O2        1.0  0.7473742423149426  0.41469278453511194  0.3098086881609428  1.0000
