data_image553
_chemical_formula_structural       BaOTiO3
_chemical_formula_sum              "Ba1 O4 Ti1"
_cell_length_a       3.927732216043248
_cell_length_b       4.188034195713664
_cell_length_c       5.135887622833252
_cell_angle_alpha    90.39836649991084
_cell_angle_beta     95.46653073425622
_cell_angle_gamma    89.94499899035351

_space_group_name_H-M_alt    "P 1"
_space_group_IT_number       1

loop_
  _space_group_symop_operation_xyz
  'x, y, z'

loop_
  _atom_site_type_symbol
  _atom_site_label
  _atom_site_symmetry_multiplicity
  _atom_site_fract_x
  _atom_site_fract_y
  _atom_site_fract_z
  _atom_site_occupancy
  Ba  Ba1       1.0  0.8532404432764438  0.03563653087617725  0.897399268080469  1.0000
  O   O1        1.0  0.41158522299821576  0.5494628340782846  0.9033481473153653  1.0000
  Ti  Ti1       1.0  0.3145778332557399  0.4908876258458641  0.48721709654425954  1.0000
  O   O2        1.0  0.17765237836674352  0.5427785950931285  0.11051618557171455  1.0000
  O   O3        1.0  0.7977278412976941  0.5486187526265698  0.5221390603140782  1.0000
  O   O4        1.0  0.29913290310511276  0.06906589230240151  0.5101648515939798  1.0000
