data_image671
_chemical_formula_structural       BaOBa4O5TiOTiO4Ti2
_chemical_formula_sum              "Ba5 O11 Ti4"
_cell_length_a       5.978116987209322
_cell_length_b       5.863000648146468
_cell_length_c       10.93617057800293
_cell_angle_alpha    74.5297055675263
_cell_angle_beta     77.0209221014406
_cell_angle_gamma    60.682455385821896

_space_group_name_H-M_alt    "P 1"
_space_group_IT_number       1

loop_
  _space_group_symop_operation_xyz
  'x, y, z'

loop_
  _atom_site_type_symbol
  _atom_site_label
  _atom_site_symmetry_multiplicity
  _atom_site_fract_x
  _atom_site_fract_y
  _atom_site_fract_z
  _atom_site_occupancy
  Ba  Ba1       1.0  0.7673338486918349  0.35449438915301007  0.3110935616605595  1.0000
  O   O1        1.0  0.1809977318008004  0.6872234271068391  0.7360694615373242  1.0000
  Ba  Ba2       1.0  0.5035776471361179  0.09600912746036251  0.09217928297962508  1.0000
  Ba  Ba3       1.0  0.6814252833876567  0.2101639111141889  0.6869268619181459  1.0000
  Ba  Ba4       1.0  0.9338598691027521  0.4643065805284342  0.9262325561963041  1.0000
  Ba  Ba5       1.0  0.39574428383555954  0.9515904257632715  0.4892130636773389  1.0000
  O   O2        1.0  0.36880764258053794  0.4598199597873848  0.5000531219884368  1.0000
  O   O3        1.0  0.9084956353187196  0.9258023927543687  0.49997997063302513  1.0000
  O   O4        1.0  0.18125527893854795  0.18491103578510298  0.7360797408709142  1.0000
  O   O5        1.0  0.8166824390937452  0.8564833620109459  0.2574864617121152  1.0000
  O   O6        1.0  0.9761867267914429  0.9258352175036121  0.9638509217457787  1.0000
  Ti  Ti1       1.0  0.3022408472291574  0.8293461921816323  0.8280638082435126  1.0000
  O   O7        1.0  0.2653476168056595  0.4062170437034845  0.25557531700187897  1.0000
  Ti  Ti2       1.0  0.030842902602853505  0.5697834997142835  0.6182489598741231  1.0000
  O   O8        1.0  0.26585169712817514  0.8597134611836694  0.25544497651786163  1.0000
  O   O9        1.0  0.455851267915299  0.6651538265676838  0.9939665842618771  1.0000
  O   O10       1.0  0.6621788855315959  0.6981125793522843  0.7312713493781043  1.0000
  O   O11       1.0  0.9083478895527412  0.4538605357149295  0.500045059995835  1.0000
  Ti  Ti3       1.0  0.14777312690307165  0.756740365905668  0.1258710303648672  1.0000
  Ti  Ti4       1.0  0.0892605912255609  0.6606538731561141  0.37706480188642155  1.0000
