data_image679
_chemical_formula_structural       BaO2
_chemical_formula_sum              "Ba1 O2"
_cell_length_a       4.403308086712568
_cell_length_b       4.4058545917603675
_cell_length_c       4.409811019897461
_cell_angle_alpha    60.30156789401171
_cell_angle_beta     60.32708729548682
_cell_angle_gamma    60.31252514515671

_space_group_name_H-M_alt    "P 1"
_space_group_IT_number       1

loop_
  _space_group_symop_operation_xyz
  'x, y, z'

loop_
  _atom_site_type_symbol
  _atom_site_label
  _atom_site_symmetry_multiplicity
  _atom_site_fract_x
  _atom_site_fract_y
  _atom_site_fract_z
  _atom_site_occupancy
  Ba  Ba1       1.0  0.6341134675345979  0.5325027710985798  0.5309221133633736  1.0000
  O   O1        1.0  0.3840728399080963  0.2825540490271741  0.2806716862715722  1.0000
  O   O2        1.0  0.8840375172401139  0.7826289639838924  0.7812218677440472  1.0000
