data_image648
_chemical_formula_structural       OTiBa2OBaTiO5
_chemical_formula_sum              "O7 Ti2 Ba3"
_cell_length_a       4.071078718911621
_cell_length_b       4.073686023345876
_cell_length_c       11.081971168518066
_cell_angle_alpha    100.51280464047387
_cell_angle_beta     100.55010420983653
_cell_angle_gamma    90.03139390463697

_space_group_name_H-M_alt    "P 1"
_space_group_IT_number       1

loop_
  _space_group_symop_operation_xyz
  'x, y, z'

loop_
  _atom_site_type_symbol
  _atom_site_label
  _atom_site_symmetry_multiplicity
  _atom_site_fract_x
  _atom_site_fract_y
  _atom_site_fract_z
  _atom_site_occupancy
  O   O1        1.0  0.8285381751540818  0.7831228530737938  0.39625140116814805  1.0000
  Ti  Ti1       1.0  0.8520617160297427  0.24596552569466135  0.39542375504926286  1.0000
  Ba  Ba1       1.0  0.42728555792724116  0.8542149286731064  0.5850931316153577  1.0000
  Ba  Ba2       1.0  0.25027031887057205  0.6724502727122108  0.2190244687864886  1.0000
  O   O2        1.0  0.025934177959379218  0.9717923396579122  0.7739629978471169  1.0000
  Ba  Ba3       1.0  0.6044597842983164  0.0381359369580765  0.951067139903679  1.0000
  Ti  Ti2       1.0  0.0025259816975210336  0.43552406862446197  0.7747010795378215  1.0000
  O   O3        1.0  0.31904392738487664  0.27170996924949287  0.39607701492083686  1.0000
  O   O4        1.0  0.7350472599367603  0.18329817586616082  0.21285031693564785  1.0000
  O   O5        1.0  0.11929002827060702  0.5545799721090303  0.9572943114373047  1.0000
  O   O6        1.0  0.5354240439400012  0.46055791841030447  0.7740736940725037  1.0000
  O   O7        1.0  0.9272369646890235  0.3707553125338939  0.5850857625143024  1.0000
