data_image810
_chemical_formula_structural       BaTiO2
_chemical_formula_sum              "Ba1 Ti1 O2"
_cell_length_a       3.2000255206808914
_cell_length_b       3.200701015180019
_cell_length_c       6.549441814422608
_cell_angle_alpha    90.00588329756687
_cell_angle_beta     90.05345556672182
_cell_angle_gamma    120.06989277226714

_space_group_name_H-M_alt    "P 1"
_space_group_IT_number       1

loop_
  _space_group_symop_operation_xyz
  'x, y, z'

loop_
  _atom_site_type_symbol
  _atom_site_label
  _atom_site_symmetry_multiplicity
  _atom_site_fract_x
  _atom_site_fract_y
  _atom_site_fract_z
  _atom_site_occupancy
  Ba  Ba1       1.0  0.8599683352271265  0.514394250367669  0.9812478535563649  1.0000
  Ti  Ti1       1.0  0.8606173981709863  0.5141525793673806  0.48147773645576963  1.0000
  O   O1        1.0  0.5270236855268522  0.847290366028194  0.3195078496485049  1.0000
  O   O2        1.0  0.19408201037263156  0.1810398475460611  0.6431027160279447  1.0000
