data_image1054
_chemical_formula_structural       BaTiBaO2Ba3O3BaTiO
_chemical_formula_sum              "Ba6 Ti2 O6"
_cell_length_a       3.9487723857246286
_cell_length_b       9.799694146050202
_cell_length_c       10.615748405456543
_cell_angle_alpha    118.93431597186296
_cell_angle_beta     89.9820527672562
_cell_angle_gamma    90.00654582531541

_space_group_name_H-M_alt    "P 1"
_space_group_IT_number       1

loop_
  _space_group_symop_operation_xyz
  'x, y, z'

loop_
  _atom_site_type_symbol
  _atom_site_label
  _atom_site_symmetry_multiplicity
  _atom_site_fract_x
  _atom_site_fract_y
  _atom_site_fract_z
  _atom_site_occupancy
  Ba  Ba1       1.0  0.7720565067329912  0.33889600795099  0.670665998230188  1.0000
  Ti  Ti1       1.0  0.2722056756585344  0.14467362197508207  0.334068986502558  1.0000
  Ba  Ba2       1.0  0.7723610686355443  0.84867843446917  0.054203504579441786  1.0000
  O   O1        1.0  0.7723300078308144  0.3182843365501539  0.07513446703967082  1.0000
  O   O2        1.0  0.7722298022335456  0.1408568731340878  0.3181288629843355  1.0000
  Ba  Ba3       1.0  0.7720954390612282  0.9193706153278887  0.43439264278695777  1.0000
  Ba  Ba4       1.0  0.27210494817644526  0.6141859762605038  0.5409826179732246  1.0000
  Ba  Ba5       1.0  0.27235220237240937  0.5434085712772659  0.16053988739888547  1.0000
  O   O3        1.0  0.27222465724691564  0.8784547711399646  0.24165658006398769  1.0000
  O   O4        1.0  0.27223419572642393  0.3221441776184793  0.2768486211080553  1.0000
  O   O5        1.0  0.7722322865293382  0.5841713072355543  0.353297939900761  1.0000
  Ba  Ba6       1.0  0.27236337207437894  0.12380073339118393  0.924483167150176  1.0000
  Ti  Ti2       1.0  0.7722219696055953  0.3185091826403004  0.26108925752535944  1.0000
  O   O6        1.0  0.2720796747082891  0.14456103882999208  0.5198234353452704  1.0000
