data_image589
_chemical_formula_structural       Ba2TiOTiO5
_chemical_formula_sum              "Ba2 Ti2 O6"
_cell_length_a       4.19910549897205
_cell_length_b       4.009570402548481
_cell_length_c       8.889145851135254
_cell_angle_alpha    90.19874735394369
_cell_angle_beta     101.8705924675084
_cell_angle_gamma    90.07487503210106

_space_group_name_H-M_alt    "P 1"
_space_group_IT_number       1

loop_
  _space_group_symop_operation_xyz
  'x, y, z'

loop_
  _atom_site_type_symbol
  _atom_site_label
  _atom_site_symmetry_multiplicity
  _atom_site_fract_x
  _atom_site_fract_y
  _atom_site_fract_z
  _atom_site_occupancy
  Ba  Ba1       1.0  0.35956822974763075  0.1318584136645774  0.16434244679096108  1.0000
  Ba  Ba2       1.0  0.9749338480427445  0.6296385262219255  0.4983745997713067  1.0000
  Ti  Ti1       1.0  0.7968174058267637  0.6308330400178059  0.959599332411254  1.0000
  O   O1        1.0  0.8311112799630296  0.632178169980529  0.17779863725700784  1.0000
  Ti  Ti2       1.0  0.5376929925858185  0.13062454218937528  0.7031233195083781  1.0000
  O   O2        1.0  0.21995379504743862  0.6310307605687273  0.970210935947965  1.0000
  O   O3        1.0  0.11456208517483316  0.1304903841119884  0.6925339319989624  1.0000
  O   O4        1.0  0.609234346212497  0.6303336563322218  0.7244280391737384  1.0000
  O   O5        1.0  0.7252877511963659  0.13114430311682315  0.9382874752709305  1.0000
  O   O6        1.0  0.5034495548441188  0.12936023286055645  0.4849299989829346  1.0000
