data_image1097
_chemical_formula_structural       TiBa2O5TiOBaO
_chemical_formula_sum              "Ti2 Ba3 O7"
_cell_length_a       4.070859767651222
_cell_length_b       4.081898341374872
_cell_length_c       11.097229957580566
_cell_angle_alpha    100.5281781680741
_cell_angle_beta     100.45117603377633
_cell_angle_gamma    90.12071268744593

_space_group_name_H-M_alt    "P 1"
_space_group_IT_number       1

loop_
  _space_group_symop_operation_xyz
  'x, y, z'

loop_
  _atom_site_type_symbol
  _atom_site_label
  _atom_site_symmetry_multiplicity
  _atom_site_fract_x
  _atom_site_fract_y
  _atom_site_fract_z
  _atom_site_occupancy
  Ti  Ti1       1.0  0.38749112766200716  0.26474341253746103  0.25287475849880237  1.0000
  Ba  Ba1       1.0  0.5962732465848956  0.5028049953960269  0.6973654975312178  1.0000
  Ba  Ba2       1.0  0.7799279920856319  0.6842776828812391  0.06340152958178058  1.0000
  O   O1        1.0  0.08005391930887615  0.01469927748609302  0.6913366570905783  1.0000
  O   O2        1.0  0.6631201326501092  0.1029325344440002  0.8745580095537725  1.0000
  O   O3        1.0  0.1740805219424116  0.6149461566707547  0.8745375670972767  1.0000
  O   O4        1.0  0.8512384602049375  0.29102767571051713  0.25206981938799544  1.0000
  O   O5        1.0  0.26362817482189754  0.2018720458233808  0.06328533395759015  1.0000
  Ti  Ti2       1.0  0.19852819533484117  0.07602166377344145  0.8738049966960106  1.0000
  O   O6        1.0  0.36252885878096186  0.8028468350591682  0.2521302793846912  1.0000
  Ba  Ba3       1.0  0.9613474752465755  0.8676574181803383  0.42925371946433155  1.0000
  O   O7        1.0  0.4505588283620316  0.38538935930714413  0.4352748262225833  1.0000
