data_image345
_chemical_formula_structural       BaTiO3BaTi2OTiO6
_chemical_formula_sum              "Ba2 Ti4 O10"
_cell_length_a       3.8219075111763297
_cell_length_b       6.062401623329627
_cell_length_c       10.170272827148438
_cell_angle_alpha    90.33759146755037
_cell_angle_beta     90.11441500547123
_cell_angle_gamma    90.07489552784031

_space_group_name_H-M_alt    "P 1"
_space_group_IT_number       1

loop_
  _space_group_symop_operation_xyz
  'x, y, z'

loop_
  _atom_site_type_symbol
  _atom_site_label
  _atom_site_symmetry_multiplicity
  _atom_site_fract_x
  _atom_site_fract_y
  _atom_site_fract_z
  _atom_site_occupancy
  Ba  Ba1       1.0  0.5937241677767146  0.17518587278319628  0.4676339733898191  1.0000
  Ti  Ti1       1.0  0.07118648001311283  0.7077283644608957  0.6371595499575148  1.0000
  O   O1        1.0  0.12226264012459297  0.6301966929757025  0.10824108477864425  1.0000
  O   O2        1.0  0.07858558847409967  0.40989682186755083  0.6076097351341853  1.0000
  O   O3        1.0  0.5839947776971346  0.24623325992470613  0.1578321669694543  1.0000
  Ba  Ba2       1.0  0.6074051295949565  0.8653205504649081  0.9685485767366767  1.0000
  Ti  Ti2       1.0  0.13027969226564018  0.33251364257365196  0.13617821890224796  1.0000
  Ti  Ti3       1.0  0.1308917164344274  0.3274615706088749  0.8000985352448761  1.0000
  O   O4        1.0  0.11437136678609777  0.8509603462272618  0.47011553255488886  1.0000
  Ti  Ti4       1.0  0.07038305993961134  0.7127937747075997  0.30112117219137086  1.0000
  O   O5        1.0  0.07772641922688821  0.41523195917530326  0.32887099322840907  1.0000
  O   O6        1.0  0.12418929506773829  0.625215179160827  0.8294287525133854  1.0000
  O   O7        1.0  0.616928763790295  0.801213402396821  0.279550709015729  1.0000
  O   O8        1.0  0.08699390869563849  0.18940395543748842  0.96828204434571  1.0000
  O   O9        1.0  0.5839491068057332  0.23983830859164984  0.7781060069224921  1.0000
  O   O10       1.0  0.6178094126959431  0.7931204274169947  0.6592805882280169  1.0000
