data_image285
_chemical_formula_structural       Ba2TiBaO2BaTiO5
_chemical_formula_sum              "Ba4 Ti2 O7"
_cell_length_a       5.91882602743359
_cell_length_b       6.411092707012289
_cell_length_c       8.349905014038086
_cell_angle_alpha    76.73037899776362
_cell_angle_beta     84.72741030375308
_cell_angle_gamma    66.02370261548255

_space_group_name_H-M_alt    "P 1"
_space_group_IT_number       1

loop_
  _space_group_symop_operation_xyz
  'x, y, z'

loop_
  _atom_site_type_symbol
  _atom_site_label
  _atom_site_symmetry_multiplicity
  _atom_site_fract_x
  _atom_site_fract_y
  _atom_site_fract_z
  _atom_site_occupancy
  Ba  Ba1       1.0  0.2972376832071556  0.18335867916714993  0.054137876774362076  1.0000
  Ba  Ba2       1.0  0.9466529440761096  0.7893677833284408  0.33640674231091544  1.0000
  Ti  Ti1       1.0  0.6143068422289796  0.4752956683023994  0.16259044113917817  1.0000
  Ba  Ba3       1.0  0.8299394182529495  0.7878504009411165  0.8157380592638738  1.0000
  O   O1        1.0  0.22044364039802664  0.7338154158881398  0.6187797375769752  1.0000
  O   O2        1.0  0.9069081802190747  0.2373874176131709  0.25127459904997484  1.0000
  Ba  Ba4       1.0  0.18064892869252816  0.1817172972687121  0.5334798436431462  1.0000
  Ti  Ti2       1.0  0.5130061804823556  0.4958197324755771  0.7074060439757993  1.0000
  O   O3        1.0  0.34815353644751973  0.42544610638428904  0.2733813573814386  1.0000
  O   O4        1.0  0.7792568040025375  0.5455299203935194  0.5966388078934245  1.0000
  O   O5        1.0  0.49626789894628004  0.2068695235448192  0.7275404283162161  1.0000
  O   O6        1.0  0.5635922804922504  0.4855594139412787  0.9350001970327726  1.0000
  O   O7        1.0  0.6309385882189791  0.7643254940350269  0.1423617933861344  1.0000
