data_image968
_chemical_formula_structural       OBaTiO3Ba2OTiO2
_chemical_formula_sum              "O7 Ba3 Ti2"
_cell_length_a       3.970079472697243
_cell_length_b       4.041829541737591
_cell_length_c       11.515769004821776
_cell_angle_alpha    100.11885929504415
_cell_angle_beta     89.99084322064999
_cell_angle_gamma    89.9849419372561

_space_group_name_H-M_alt    "P 1"
_space_group_IT_number       1

loop_
  _space_group_symop_operation_xyz
  'x, y, z'

loop_
  _atom_site_type_symbol
  _atom_site_label
  _atom_site_symmetry_multiplicity
  _atom_site_fract_x
  _atom_site_fract_y
  _atom_site_fract_z
  _atom_site_occupancy
  O   O1        1.0  0.77580990791856  0.5513850224880026  0.9268501367286279  1.0000
  Ba  Ba1       1.0  0.2756128551826644  0.4036719349628301  0.6313387917782495  1.0000
  Ti  Ti1       1.0  0.7756701587501392  0.8197750277690293  0.46430079492419735  1.0000
  O   O2        1.0  0.2756402958856257  0.8200748037448566  0.46361037749803746  1.0000
  O   O3        1.0  0.27574457081868187  0.6380548031415779  0.10012894486638461  1.0000
  O   O4        1.0  0.7755408919037591  0.9066208148240986  0.6368784161716912  1.0000
  Ba  Ba2       1.0  0.27573356976405083  0.05404733361888206  0.9321708161581067  1.0000
  Ba  Ba3       1.0  0.2756345896878183  0.22898314502699854  0.28183884161238576  1.0000
  O   O5        1.0  0.7756385141371694  0.3204076795295313  0.463994409898009  1.0000
  Ti  Ti2       1.0  0.7755737394124566  0.6377573524042205  0.09935045044727696  1.0000
  O   O6        1.0  0.7756752644150556  0.7291396916612458  0.2819089920339721  1.0000
  O   O7        1.0  0.7756916360594857  0.13785117527663837  0.09965634639417419  1.0000
