data_image767
_chemical_formula_structural       BaOBaOTiO
_chemical_formula_sum              "Ba2 O3 Ti1"
_cell_length_a       4.039178308836008
_cell_length_b       3.989012538390756
_cell_length_c       7.391522407531737
_cell_angle_alpha    105.71567163879251
_cell_angle_beta     105.84468226748669
_cell_angle_gamma    90.00477036473104

_space_group_name_H-M_alt    "P 1"
_space_group_IT_number       1

loop_
  _space_group_symop_operation_xyz
  'x, y, z'

loop_
  _atom_site_type_symbol
  _atom_site_label
  _atom_site_symmetry_multiplicity
  _atom_site_fract_x
  _atom_site_fract_y
  _atom_site_fract_z
  _atom_site_occupancy
  Ba  Ba1       1.0  0.6660843685411315  0.3301585527854914  0.5335021394848968  1.0000
  O   O1        1.0  0.45965319893179696  0.1234653294458988  0.12059735333447885  1.0000
  Ba  Ba2       1.0  0.9662868669542072  0.6304008111888538  0.13376810082307541  1.0000
  O   O2        1.0  0.816165572159043  0.9803474003309162  0.8335915367081604  1.0000
  Ti  Ti1       1.0  0.3162047565415542  0.9803338433299269  0.8336966734116225  1.0000
  O   O3        1.0  0.17264964552328269  0.8369870158479648  0.5465643189963847  1.0000
