data_image961
_chemical_formula_structural       O3Ba2OTi2
_chemical_formula_sum              "O4 Ba2 Ti2"
_cell_length_a       3.686758762663913
_cell_length_b       4.137659656189557
_cell_length_c       8.89195442199707
_cell_angle_alpha    113.67599867879935
_cell_angle_beta     89.99672401366624
_cell_angle_gamma    90.19769550062966

_space_group_name_H-M_alt    "P 1"
_space_group_IT_number       1

loop_
  _space_group_symop_operation_xyz
  'x, y, z'

loop_
  _atom_site_type_symbol
  _atom_site_label
  _atom_site_symmetry_multiplicity
  _atom_site_fract_x
  _atom_site_fract_y
  _atom_site_fract_z
  _atom_site_occupancy
  O   O1        1.0  0.051256589346738726  0.10682406502850204  0.8768031630693583  1.0000
  O   O2        1.0  0.551692407645448  0.7743619713983382  0.0082970287633235  1.0000
  O   O3        1.0  0.05122111946811847  0.3751598961098516  0.6311814196115619  1.0000
  Ba  Ba1       1.0  0.05138417702816852  0.04205379408990842  0.28590685610121835  1.0000
  Ba  Ba2       1.0  0.5515668250190878  0.839158000107196  0.5992158863186944  1.0000
  O   O4        1.0  0.5517320967080472  0.506061486690139  0.2539615206628509  1.0000
  Ti  Ti1       1.0  0.05142767247319794  0.5982921792937308  0.8721837790234441  1.0000
  Ti  Ti2       1.0  0.5515305360345816  0.28292144932860674  0.012950301676726537  1.0000
