data_image676
_chemical_formula_structural       BaOTiBaTiBaO6
_chemical_formula_sum              "Ba3 O7 Ti2"
_cell_length_a       4.067356664848559
_cell_length_b       4.069497396708453
_cell_length_c       11.072819709777832
_cell_angle_alpha    100.5740497547794
_cell_angle_beta     100.54069888895441
_cell_angle_gamma    89.84100935194142

_space_group_name_H-M_alt    "P 1"
_space_group_IT_number       1

loop_
  _space_group_symop_operation_xyz
  'x, y, z'

loop_
  _atom_site_type_symbol
  _atom_site_label
  _atom_site_symmetry_multiplicity
  _atom_site_fract_x
  _atom_site_fract_y
  _atom_site_fract_z
  _atom_site_occupancy
  Ba  Ba1       1.0  0.5349623766760837  0.6660901859235058  0.2934446880139578  1.0000
  O   O1        1.0  0.6453758883693084  0.26588046635045626  0.47081710101867685  1.0000
  Ti  Ti1       1.0  0.10961326280279929  0.24064476469392437  0.4701807569473372  1.0000
  Ba  Ba2       1.0  0.7170276579378521  0.8483658922796848  0.6597401879776876  1.0000
  Ti  Ti2       1.0  0.2984861429145338  0.4298336460577312  0.8492768152873142  1.0000
  Ba  Ba3       1.0  0.9002113971957459  0.031783123720050356  0.025998318023716632  1.0000
  O   O2        1.0  0.4168228213110042  0.54874454002317  0.03197581541738326  1.0000
  O   O3        1.0  0.8334307148894096  0.4544185765772246  0.8485902871043102  1.0000
  O   O4        1.0  0.3226714591182709  0.9652365029561115  0.8485994214433763  1.0000
  O   O5        1.0  0.23359469503311242  0.365134973573473  0.659736252288592  1.0000
  O   O6        1.0  0.13451017781153363  0.7768429348326836  0.4708095371708583  1.0000
  O   O7        1.0  0.046217148523070836  0.17732414245903924  0.2874791578918616  1.0000
