data_image753
_chemical_formula_structural       OBa2TiO2TiBaO2TiO5
_chemical_formula_sum              "O10 Ba3 Ti3"
_cell_length_a       3.962243170219239
_cell_length_b       3.9658410221737865
_cell_length_c       15.30959129333496
_cell_angle_alpha    97.49855307679971
_cell_angle_beta     97.49959829262323
_cell_angle_gamma    90.04745866456868

_space_group_name_H-M_alt    "P 1"
_space_group_IT_number       1

loop_
  _space_group_symop_operation_xyz
  'x, y, z'

loop_
  _atom_site_type_symbol
  _atom_site_label
  _atom_site_symmetry_multiplicity
  _atom_site_fract_x
  _atom_site_fract_y
  _atom_site_fract_z
  _atom_site_occupancy
  O   O1        1.0  0.955334876450288  0.03421597042106803  0.6839391077791845  1.0000
  Ba  Ba1       1.0  0.17668762106229513  0.25714496044356794  0.1356441624037692  1.0000
  Ba  Ba2       1.0  0.5772080382297773  0.6592163089055154  0.9426905905935876  1.0000
  Ti  Ti1       1.0  0.8956713644445756  0.9751967313750328  0.5678128033854518  1.0000
  O   O2        1.0  0.3824887988882328  0.9623993658930976  0.5433076470812808  1.0000
  O   O3        1.0  0.524984809213875  0.1003937501592768  0.8196975595776299  1.0000
  Ti  Ti2       1.0  0.004029757512173472  0.08938594022143256  0.8145147138922074  1.0000
  Ba  Ba3       1.0  0.3156880716545782  0.3957428785240729  0.41081296573260717  1.0000
  O   O4        1.0  0.8824846941508347  0.46243476087426216  0.543377746900436  1.0000
  O   O5        1.0  0.24137569396998473  0.8215494852967672  0.2636113928521739  1.0000
  Ti  Ti3       1.0  0.7428832725955364  0.8232353570852957  0.26669336079872097  1.0000
  O   O6        1.0  0.08452096721393329  0.16436459482387022  0.9465382075944809  1.0000
  O   O7        1.0  0.7413400576516492  0.3215766362572704  0.26364498527806196  1.0000
  O   O8        1.0  0.673803159868231  0.754144467668685  0.1296941419439447  1.0000
  O   O9        1.0  0.806851894954857  0.8869236916020474  0.39331012812363136  1.0000
  O   O10       1.0  0.020336336841195214  0.6033180982956163  0.8196860595548353  1.0000
