data_image775
_chemical_formula_structural       TiBaTiO2
_chemical_formula_sum              "Ti2 Ba1 O2"
_cell_length_a       3.5494936544568327
_cell_length_b       3.5503734886034723
_cell_length_c       6.586510181427001
_cell_angle_alpha    105.72490077921056
_cell_angle_beta     105.71674521234193
_cell_angle_gamma    89.95300397253705

_space_group_name_H-M_alt    "P 1"
_space_group_IT_number       1

loop_
  _space_group_symop_operation_xyz
  'x, y, z'

loop_
  _atom_site_type_symbol
  _atom_site_label
  _atom_site_symmetry_multiplicity
  _atom_site_fract_x
  _atom_site_fract_y
  _atom_site_fract_z
  _atom_site_occupancy
  Ti  Ti1       1.0  0.18579807706918916  0.8632773360065449  0.5534703108385611  1.0000
  Ba  Ba1       1.0  0.4356718322355955  0.6129352130616161  0.05344690092852831  1.0000
  Ti  Ti2       1.0  0.6860552728125192  0.3630995571235627  0.5535925918278626  1.0000
  O   O1        1.0  0.07778290060563178  0.25497280931721256  0.33779501454063576  1.0000
  O   O2        1.0  0.7940641315438681  0.9713856063741632  0.769131235881407  1.0000
