data_image557
_chemical_formula_structural       Ba2O3BaTiO
_chemical_formula_sum              "Ba3 O4 Ti1"
_cell_length_a       4.051513582177193
_cell_length_b       4.05500005247694
_cell_length_c       9.792805671691895
_cell_angle_alpha    89.88386197980917
_cell_angle_beta     89.87017427123816
_cell_angle_gamma    89.76091856981586

_space_group_name_H-M_alt    "P 1"
_space_group_IT_number       1

loop_
  _space_group_symop_operation_xyz
  'x, y, z'

loop_
  _atom_site_type_symbol
  _atom_site_label
  _atom_site_symmetry_multiplicity
  _atom_site_fract_x
  _atom_site_fract_y
  _atom_site_fract_z
  _atom_site_occupancy
  Ba  Ba1       1.0  0.18771233679885121  0.5516182098474588  0.9087287353225036  1.0000
  Ba  Ba2       1.0  0.18883750402256572  0.5526544422236418  0.5095144036850963  1.0000
  O   O1        1.0  0.6881833658677251  0.5519671293277649  0.7143477563611997  1.0000
  O   O2        1.0  0.6890584551223408  0.0528179875323201  0.4948395722439373  1.0000
  O   O3        1.0  0.18808709004284496  0.05205605501760007  0.7144480849411146  1.0000
  Ba  Ba3       1.0  0.6894603309858007  0.053195802106647566  0.22998327316742148  1.0000
  Ti  Ti1       1.0  0.6882080017352945  0.05207834230732711  0.697449208194105  1.0000
  O   O4        1.0  0.18866854328277122  0.5523733193699681  0.22513695760189004  1.0000
