data_image561
_chemical_formula_structural       TiBaOBaO3
_chemical_formula_sum              "Ti1 Ba2 O4"
_cell_length_a       4.046547041495001
_cell_length_b       4.046627006660777
_cell_length_c       7.337585926055908
_cell_angle_alpha    105.92995650845145
_cell_angle_beta     105.84604741616019
_cell_angle_gamma    90.01769951576853

_space_group_name_H-M_alt    "P 1"
_space_group_IT_number       1

loop_
  _space_group_symop_operation_xyz
  'x, y, z'

loop_
  _atom_site_type_symbol
  _atom_site_label
  _atom_site_symmetry_multiplicity
  _atom_site_fract_x
  _atom_site_fract_y
  _atom_site_fract_z
  _atom_site_occupancy
  Ti  Ti1       1.0  0.4934113406245364  0.7781159636931215  0.6732311224675486  1.0000
  Ba  Ba1       1.0  0.1363937235030084  0.4213631134064598  0.9600676327484163  1.0000
  O   O1        1.0  0.4934728993790813  0.27808003663586633  0.6731506739906793  1.0000
  Ba  Ba2       1.0  0.8503240857865785  0.13475998590412325  0.3861022906858722  1.0000
  O   O2        1.0  0.9934622687806605  0.7780221258021364  0.6731093812809753  1.0000
  O   O3        1.0  0.6400568594754855  0.9249844901989002  0.9674793194719573  1.0000
  O   O4        1.0  0.3468121961298433  0.631242924517547  0.3788753579891572  1.0000
