data_image632
_chemical_formula_structural       TiBaO2BaOTiO3
_chemical_formula_sum              "Ti2 Ba2 O6"
_cell_length_a       5.72167598561391
_cell_length_b       5.723493080968344
_cell_length_c       5.743107318878174
_cell_angle_alpha    90.99940941631668
_cell_angle_beta     119.30789984451533
_cell_angle_gamma    119.44072235054801

_space_group_name_H-M_alt    "P 1"
_space_group_IT_number       1

loop_
  _space_group_symop_operation_xyz
  'x, y, z'

loop_
  _atom_site_type_symbol
  _atom_site_label
  _atom_site_symmetry_multiplicity
  _atom_site_fract_x
  _atom_site_fract_y
  _atom_site_fract_z
  _atom_site_occupancy
  Ti  Ti1       1.0  0.5380843721535041  0.764639841874797  0.9084778243742022  1.0000
  Ba  Ba1       1.0  0.0537873051055246  0.020037789724032157  0.6797662694377984  1.0000
  O   O1        1.0  0.568716097357158  0.01839618009297408  0.7067726107337459  1.0000
  O   O2        1.0  0.08239945964944806  0.532300797237189  0.7064264860480419  1.0000
  Ba  Ba2       1.0  0.053796754244310095  0.5200375622300066  0.17975687878718663  1.0000
  O   O3        1.0  0.5717266723855898  0.5287486104154281  0.7064666840101659  1.0000
  Ti  Ti2       1.0  0.538169415670215  0.2646809169864967  0.4084881294094333  1.0000
  O   O4        1.0  0.5719780994832399  0.02876155406620368  0.2066004682098907  1.0000
  O   O5        1.0  0.5687032301521804  0.5182754012068049  0.2067188408479859  1.0000
  O   O6        1.0  0.0825421769613151  0.03220516741657039  0.20647529989250052  1.0000
