data_image560
_chemical_formula_structural       Ba2TiOTiO2BaO3
_chemical_formula_sum              "Ba3 Ti2 O6"
_cell_length_a       4.026492475269023
_cell_length_b       4.026372920989448
_cell_length_c       11.261396408081053
_cell_angle_alpha    100.26539471246998
_cell_angle_beta     100.26228010375728
_cell_angle_gamma    90.0431965050904

_space_group_name_H-M_alt    "P 1"
_space_group_IT_number       1

loop_
  _space_group_symop_operation_xyz
  'x, y, z'

loop_
  _atom_site_type_symbol
  _atom_site_label
  _atom_site_symmetry_multiplicity
  _atom_site_fract_x
  _atom_site_fract_y
  _atom_site_fract_z
  _atom_site_occupancy
  Ba  Ba1       1.0  0.3188660626215443  0.8068326101705068  0.5818823963352774  1.0000
  Ba  Ba2       1.0  0.13565539895650672  0.6236394112815132  0.21499913058707712  1.0000
  Ti  Ti1       1.0  0.7363320111860127  0.22427551364474002  0.4165670775590113  1.0000
  O   O1        1.0  0.8248725019230768  0.3128328681263457  0.5940045976981333  1.0000
  Ti  Ti2       1.0  0.5349165221286145  0.02293563578359351  0.013421876541890603  1.0000
  O   O2        1.0  0.2271637431519375  0.21506842769214318  0.3981677060807048  1.0000
  O   O3        1.0  0.5441383310663865  0.53209520847641  0.03183586676436287  1.0000
  Ba  Ba3       1.0  0.9523885128787194  0.4404150164681352  0.8480940530780222  1.0000
  O   O4        1.0  0.44639165391895  0.9343899839337383  0.8359968804074097  1.0000
  O   O5        1.0  0.04408415857142612  0.03213552390984257  0.03183091982947257  1.0000
  O   O6        1.0  0.72705368723369  0.7150835926894232  0.39814140913336876  1.0000
