data_image131
_chemical_formula_structural       Ba3TiO3TiO3
_chemical_formula_sum              "Ba3 Ti2 O6"
_cell_length_a       4.035420509995079
_cell_length_b       4.036375024291808
_cell_length_c       11.285072326660156
_cell_angle_alpha    100.2325137614314
_cell_angle_beta     100.22204979596246
_cell_angle_gamma    89.97090582497997

_space_group_name_H-M_alt    "P 1"
_space_group_IT_number       1

loop_
  _space_group_symop_operation_xyz
  'x, y, z'

loop_
  _atom_site_type_symbol
  _atom_site_label
  _atom_site_symmetry_multiplicity
  _atom_site_fract_x
  _atom_site_fract_y
  _atom_site_fract_z
  _atom_site_occupancy
  Ba  Ba1       1.0  0.7385741372927813  0.2278298969702676  0.7847380522010913  1.0000
  Ba  Ba2       1.0  0.1046509618500632  0.5938620584791146  0.5177952296884865  1.0000
  Ba  Ba3       1.0  0.9215317923967611  0.41079554468867474  0.15126024817100675  1.0000
  Ti  Ti1       1.0  0.32060396144176745  0.8098932325016164  0.9493749362920413  1.0000
  O   O1        1.0  0.013481253457011025  0.0025083655282918406  0.33473229883955674  1.0000
  O   O2        1.0  0.5133295706551317  0.5026718529973364  0.3347586387376177  1.0000
  O   O3        1.0  0.6106888077532989  0.099912637891059  0.5299622102691106  1.0000
  Ti  Ti2       1.0  0.5225770807657231  0.011771835246570881  0.3531686393334023  1.0000
  O   O4        1.0  0.8296851219196638  0.8191171848316616  0.9677908184010039  1.0000
  O   O5        1.0  0.23257298618443567  0.7218160060027056  0.7726111871626828  1.0000
  O   O6        1.0  0.3298090489891404  0.31897979872354293  0.9677616533411163  1.0000
