data_image908
_chemical_formula_structural       Ba3OTiOTiO5
_chemical_formula_sum              "Ba3 O7 Ti2"
_cell_length_a       4.069320697988016
_cell_length_b       4.07556400438854
_cell_length_c       11.154306411743162
_cell_angle_alpha    100.38399367391717
_cell_angle_beta     100.36461695522205
_cell_angle_gamma    89.99752328481597

_space_group_name_H-M_alt    "P 1"
_space_group_IT_number       1

loop_
  _space_group_symop_operation_xyz
  'x, y, z'

loop_
  _atom_site_type_symbol
  _atom_site_label
  _atom_site_symmetry_multiplicity
  _atom_site_fract_x
  _atom_site_fract_y
  _atom_site_fract_z
  _atom_site_occupancy
  Ba  Ba1       1.0  0.3522168654196021  0.6367056938493469  0.7985959269984035  1.0000
  Ba  Ba2       1.0  0.16427062296420408  0.4552760248996946  0.43308760795269735  1.0000
  Ba  Ba3       1.0  0.5404255581755187  0.8204575650898347  0.16412725741143155  1.0000
  O   O1        1.0  0.852294214038052  0.1536810334411255  0.7986521334982063  1.0000
  Ti  Ti1       1.0  0.9663344845294087  0.21814838667371864  0.9880204505385243  1.0000
  O   O2        1.0  0.2720102496917971  0.054876910448894076  0.6098495107373916  1.0000
  Ti  Ti2       1.0  0.7383019643671623  0.028526435237900313  0.6092261757659825  1.0000
  O   O3        1.0  0.43248655175903156  0.244215560426236  0.9873335568126468  1.0000
  O   O4        1.0  0.9420346931205771  0.7553318729412185  0.9872729310100138  1.0000
  O   O5        1.0  0.7627351302600406  0.5663830673528208  0.6099840483117178  1.0000
  O   O6        1.0  0.030685055894389836  0.33677784040701536  0.16966020955365527  1.0000
  O   O7        1.0  0.6737534282587692  0.966821427483162  0.42755414628260763  1.0000
