data_image149
_chemical_formula_structural       BaOBa3OTi2O4
_chemical_formula_sum              "Ba4 O6 Ti2"
_cell_length_a       3.8968975543979485
_cell_length_b       7.489398863249859
_cell_length_c       11.088037490844727
_cell_angle_alpha    115.85458387725056
_cell_angle_beta     89.99997518372147
_cell_angle_gamma    105.14296914643589

_space_group_name_H-M_alt    "P 1"
_space_group_IT_number       1

loop_
  _space_group_symop_operation_xyz
  'x, y, z'

loop_
  _atom_site_type_symbol
  _atom_site_label
  _atom_site_symmetry_multiplicity
  _atom_site_fract_x
  _atom_site_fract_y
  _atom_site_fract_z
  _atom_site_occupancy
  Ba  Ba1       1.0  0.5959714472256542  0.6906759795778902  0.3886504258262872  1.0000
  O   O1        1.0  0.3749728847751458  0.24864603314485836  0.33651668025589027  1.0000
  Ba  Ba2       1.0  0.09418529314919977  0.6913849816253513  0.8881221540978523  1.0000
  Ba  Ba3       1.0  0.8033942140185855  0.10534375670541486  0.7218332287585894  1.0000
  Ba  Ba4       1.0  0.38931784263838565  0.2776213998120148  0.05473903803951737  1.0000
  O   O2        1.0  0.7444148903789064  0.9885845844336567  0.10525920241851262  1.0000
  Ti  Ti1       1.0  0.3466370796607632  0.19156056435651395  0.5006071909882143  1.0000
  Ti  Ti2       1.0  0.845402557243343  0.18988501852390563  0.2755115598223327  1.0000
  O   O3        1.0  0.965889174779978  0.43059781370662875  0.24635617267308463  1.0000
  O   O4        1.0  0.8169854684645964  0.13265015989548626  0.43958031189329644  1.0000
  O   O5        1.0  0.22633779745494037  0.9513308957510437  0.5302916578907294  1.0000
  O   O6        1.0  0.44806895088469656  0.39328763329265765  0.6707126821566555  1.0000
