data_image554
_chemical_formula_structural       Ti2Ba2TiO2TiO2TiO9
_chemical_formula_sum              "Ti5 Ba2 O13"
_cell_length_a       6.231011274033923
_cell_length_b       5.781510385284221
_cell_length_c       9.676158905029297
_cell_angle_alpha    106.28598668655854
_cell_angle_beta     84.04820987245637
_cell_angle_gamma    108.4390808218543

_space_group_name_H-M_alt    "P 1"
_space_group_IT_number       1

loop_
  _space_group_symop_operation_xyz
  'x, y, z'

loop_
  _atom_site_type_symbol
  _atom_site_label
  _atom_site_symmetry_multiplicity
  _atom_site_fract_x
  _atom_site_fract_y
  _atom_site_fract_z
  _atom_site_occupancy
  Ti  Ti1       1.0  0.36818081754075693  0.16890719533064436  0.6894425125444564  1.0000
  Ti  Ti2       1.0  0.9537117569422985  0.5496150140192301  0.6598975156820784  1.0000
  Ba  Ba1       1.0  0.44600076592287136  0.6882497255219739  0.38184771751623364  1.0000
  Ba  Ba2       1.0  0.4819540080755567  0.8138895834130799  0.9248274909704033  1.0000
  Ti  Ti3       1.0  0.11900840619666969  0.23155396478532883  0.04708102616068144  1.0000
  O   O1        1.0  0.975668400981959  0.36706763244382173  0.4660904086097834  1.0000
  O   O2        1.0  0.23014490026529436  0.18930199885309063  0.21496442085080075  1.0000
  Ti  Ti4       1.0  0.09720526196762003  0.10787010238906278  0.378462888416158  1.0000
  O   O3        1.0  0.3247277845825665  0.23164221781995306  0.8995014799642704  1.0000
  O   O4        1.0  0.8979542338022976  0.7941748708062738  0.3206873536625379  1.0000
  Ti  Ti5       1.0  0.8936814007040469  0.6278123894882514  0.10634227908579535  1.0000
  O   O5        1.0  0.1500760098000145  0.4532070320512645  0.7374483872262548  1.0000
  O   O6        1.0  0.6071137995873769  0.6347947629106276  0.12030960566902787  1.0000
  O   O7        1.0  0.9948651514127886  0.8469914622622595  0.9889948486518157  1.0000
  O   O8        1.0  0.8369173020365495  0.26633874695828447  0.022885279854651146  1.0000
  O   O9        1.0  0.34078114908908413  0.14414420409877368  0.48037494947267556  1.0000
  O   O10       1.0  0.6488068223678529  0.470053510337122  0.713124679068311  1.0000
  O   O11       1.0  0.5208520790098795  0.9534859847775672  0.6641717502543187  1.0000
  O   O12       1.0  0.1905531037607712  0.5856849279233475  0.13768918205932437  1.0000
  O   O13       1.0  0.07619264546065493  0.8789433142428479  0.6634598172003806  1.0000
