data_image932
_chemical_formula_structural       BaOTiBaOBaTiOTi2BaO9
_chemical_formula_sum              "Ba4 O12 Ti4"
_cell_length_a       5.811761725513865
_cell_length_b       5.812218887652232
_cell_length_c       10.089278221130371
_cell_angle_alpha    73.32325414452583
_cell_angle_beta     73.30214214306424
_cell_angle_gamma    60.035701031820196

_space_group_name_H-M_alt    "P 1"
_space_group_IT_number       1

loop_
  _space_group_symop_operation_xyz
  'x, y, z'

loop_
  _atom_site_type_symbol
  _atom_site_label
  _atom_site_symmetry_multiplicity
  _atom_site_fract_x
  _atom_site_fract_y
  _atom_site_fract_z
  _atom_site_occupancy
  Ba  Ba1       1.0  0.278020831019375  0.09795344344277608  0.5757883695619446  1.0000
  O   O1        1.0  0.38853505882013417  0.6581707592244878  0.7949135959789323  1.0000
  Ti  Ti1       1.0  0.9940204495908822  0.8141512658903329  0.4277252245280657  1.0000
  Ba  Ba2       1.0  0.8648599914553493  0.6846908544324632  0.8153979534137206  1.0000
  O   O2        1.0  0.7893631942964464  0.10514912021098936  0.545979040247752  1.0000
  Ba  Ba3       1.0  0.7101644586474017  0.5302649771044999  0.2793763661730437  1.0000
  Ti  Ti2       1.0  0.5874865245304414  0.4076149073867196  0.6474199397420518  1.0000
  O   O3        1.0  0.14988441939552496  0.4197801477319145  0.06028131749527717  1.0000
  Ti  Ti3       1.0  0.4006026775442464  0.2206198490228992  0.20798532661358693  1.0000
  Ti  Ti4       1.0  0.49407191950729734  0.31390361086175556  0.9277263172536296  1.0000
  Ba  Ba4       1.0  0.12344264656135484  0.9433812169084604  0.03962700902718926  1.0000
  O   O4        1.0  0.3882846043548486  0.20831817876393283  0.794729929348216  1.0000
  O   O5        1.0  0.1987473094721621  0.5229816451988097  0.30924572201110545  1.0000
  O   O6        1.0  0.1987653297799719  0.018966415209972713  0.3093166119430015  1.0000
  O   O7        1.0  0.28513648482896686  0.609495485548683  0.5459980478934526  1.0000
  O   O8        1.0  0.7027129225634913  0.01879478066313274  0.30934211409372037  1.0000
  O   O9        1.0  0.5999169402882258  0.4197494462178977  0.060449221226819526  1.0000
  O   O10       1.0  0.8383470945195259  0.2083635944411603  0.7948631661757922  1.0000
  O   O11       1.0  0.5997512667213049  0.9698553481887701  0.060243315606061665  1.0000
  O   O12       1.0  0.7892736442499174  0.6092816502525784  0.5459762510754964  1.0000
