data_image146
_chemical_formula_structural       TiO2Ba2O4TiBa2O2Ba2O2
_chemical_formula_sum              "Ti2 O10 Ba6"
_cell_length_a       6.3585322607062995
_cell_length_b       8.155964820651226
_cell_length_c       8.150190353393555
_cell_angle_alpha    120.02170972989794
_cell_angle_beta     90.01785661957419
_cell_angle_gamma    90.00109533463362

_space_group_name_H-M_alt    "P 1"
_space_group_IT_number       1

loop_
  _space_group_symop_operation_xyz
  'x, y, z'

loop_
  _atom_site_type_symbol
  _atom_site_label
  _atom_site_symmetry_multiplicity
  _atom_site_fract_x
  _atom_site_fract_y
  _atom_site_fract_z
  _atom_site_occupancy
  Ti  Ti1       1.0  0.4498440250509802  0.015196159791792981  0.16493561740960333  1.0000
  O   O1        1.0  0.5447754916176134  0.89195762324392  0.28795200280917715  1.0000
  O   O2        1.0  0.7309567513305167  0.6817794067230627  0.49821560537099585  1.0000
  Ba  Ba1       1.0  0.970923882518657  0.8375426511251259  0.8097563547311107  1.0000
  Ba  Ba2       1.0  0.9708517554826995  0.37008944571046076  0.34237741261431315  1.0000
  O   O3        1.0  0.544373981426793  0.8921032782082207  0.9184498397505428  1.0000
  O   O4        1.0  0.3027355057454004  0.34842797288118865  0.8313955075420539  1.0000
  O   O5        1.0  0.15912204090751345  0.01504639651810731  0.16505509911362012  1.0000
  O   O6        1.0  0.23095438859783401  0.6816942428541266  0.49815758620494216  1.0000
  Ti  Ti2       1.0  0.012008438785576116  0.34831579612564745  0.8314536308601796  1.0000
  Ba  Ba3       1.0  0.49088397669697253  0.526100123861456  0.1866875555146723  1.0000
  Ba  Ba4       1.0  0.4906553751185191  0.5261185512724342  0.6541456667952452  1.0000
  O   O7        1.0  0.5443775684893923  0.26156349063112155  0.2880973850331748  1.0000
  O   O8        1.0  0.9174957495624493  0.47139561960321397  0.07790227466667163  1.0000
  Ba  Ba5       1.0  0.9712320248829152  0.8374020002097944  0.3422177391520391  1.0000
  Ba  Ba6       1.0  0.4910690431617598  0.9935187024085289  0.6540369043645763  1.0000
  O   O9        1.0  0.9174297574853688  0.10195381182894546  0.7082110850469671  1.0000
  O   O10       1.0  0.9170827150681156  0.4716117513067527  0.7084583724037598  1.0000
