data_image724
_chemical_formula_structural       Ba2TiO3
_chemical_formula_sum              "Ba2 Ti1 O3"
_cell_length_a       3.9905156152697785
_cell_length_b       4.0456238812994485
_cell_length_c       7.383804321289063
_cell_angle_alpha    105.84305613116577
_cell_angle_beta     105.65246690463755
_cell_angle_gamma    89.98771481258811

_space_group_name_H-M_alt    "P 1"
_space_group_IT_number       1

loop_
  _space_group_symop_operation_xyz
  'x, y, z'

loop_
  _atom_site_type_symbol
  _atom_site_label
  _atom_site_symmetry_multiplicity
  _atom_site_fract_x
  _atom_site_fract_y
  _atom_site_fract_z
  _atom_site_occupancy
  Ba  Ba1       1.0  0.48776584579643134  0.8981128714744645  0.6623444176660991  1.0000
  Ba  Ba2       1.0  0.18783322284558865  0.5981502145297668  0.062235434773155955  1.0000
  Ti  Ti1       1.0  0.837799248029903  0.24810957527249825  0.36226628361973146  1.0000
  O   O1        1.0  0.9813082012563872  0.391462447835727  0.6494747389240273  1.0000
  O   O2        1.0  0.694130677625635  0.10480349096710402  0.07520916916242966  1.0000
  O   O3        1.0  0.8379366562361042  0.7481305565600447  0.362338991819246  1.0000
