data_image686
_chemical_formula_structural       BaTiO3
_chemical_formula_sum              "Ba1 Ti1 O3"
_cell_length_a       3.9597442794852857
_cell_length_b       4.110056625573464
_cell_length_c       4.122112274169922
_cell_angle_alpha    90.46550040416287
_cell_angle_beta     90.04978775172876
_cell_angle_gamma    90.0753258275156

_space_group_name_H-M_alt    "P 1"
_space_group_IT_number       1

loop_
  _space_group_symop_operation_xyz
  'x, y, z'

loop_
  _atom_site_type_symbol
  _atom_site_label
  _atom_site_symmetry_multiplicity
  _atom_site_fract_x
  _atom_site_fract_y
  _atom_site_fract_z
  _atom_site_occupancy
  Ba  Ba1       1.0  0.50798536433893  0.9766490289035261  0.3895343241832428  1.0000
  Ti  Ti1       1.0  0.008574719434165766  0.49401585782003027  0.8717018413716187  1.0000
  O   O1        1.0  0.00832158067613779  0.9448651386088701  0.90552614791824  1.0000
  O   O2        1.0  0.508286902047219  0.45416434328535177  0.912926446462425  1.0000
  O   O3        1.0  0.008178201786183238  0.46201724935410565  0.4228720046387438  1.0000
