data_image9
_chemical_formula_structural       BaTiBaOBaOBaO2TiO2
_chemical_formula_sum              "Ba4 Ti2 O6"
_cell_length_a       4.041975030607402
_cell_length_b       4.041995116073517
_cell_length_c       13.963144302368164
_cell_angle_alpha    89.98952499492624
_cell_angle_beta     90.00387522180456
_cell_angle_gamma    90.04532081174762

_space_group_name_H-M_alt    "P 1"
_space_group_IT_number       1

loop_
  _space_group_symop_operation_xyz
  'x, y, z'

loop_
  _atom_site_type_symbol
  _atom_site_label
  _atom_site_symmetry_multiplicity
  _atom_site_fract_x
  _atom_site_fract_y
  _atom_site_fract_z
  _atom_site_occupancy
  Ba  Ba1       1.0  0.6474492526881245  0.36534871143121983  0.7654237024783074  1.0000
  Ti  Ti1       1.0  0.147446392010945  0.8652475055232574  0.8917938328658185  1.0000
  Ba  Ba2       1.0  0.6473813399204362  0.36519075623243497  0.050067480058716515  1.0000
  O   O1        1.0  0.1474387174914644  0.8653538732759749  0.7517903081355015  1.0000
  Ba  Ba3       1.0  0.14740387325998108  0.86530851709154  0.5500526771219205  1.0000
  O   O2        1.0  0.14731692168223703  0.36534952473486526  0.19560566712865088  1.0000
  Ba  Ba4       1.0  0.6473198495436716  0.3653010167188002  0.33468800515605374  1.0000
  O   O3        1.0  0.647309595761019  0.8653477837145479  0.19554256043962212  1.0000
  O   O4        1.0  0.6474371695709389  0.8652304531991943  0.904566959512519  1.0000
  Ti  Ti2       1.0  0.14731710887990634  0.8653248814950874  0.20834407618540293  1.0000
  O   O5        1.0  0.1473412543533172  0.8652293481385844  0.34838344670970106  1.0000
  O   O6        1.0  0.14743054100520295  0.36523544315849654  0.9044849475257375  1.0000
