data_image785
_chemical_formula_structural       TiBaO2
_chemical_formula_sum              "Ti1 Ba1 O2"
_cell_length_a       4.068925835623222
_cell_length_b       4.0747443274462
_cell_length_c       6.716377258300781
_cell_angle_alpha    72.31651172132841
_cell_angle_beta     72.36045773137138
_cell_angle_gamma    59.9902350434857

_space_group_name_H-M_alt    "P 1"
_space_group_IT_number       1

loop_
  _space_group_symop_operation_xyz
  'x, y, z'

loop_
  _atom_site_type_symbol
  _atom_site_label
  _atom_site_symmetry_multiplicity
  _atom_site_fract_x
  _atom_site_fract_y
  _atom_site_fract_z
  _atom_site_occupancy
  Ti  Ti1       1.0  0.5179532580121459  0.08187991669766491  0.5699346999101321  1.0000
  Ba  Ba1       1.0  0.018613776455726653  0.5826692371450202  0.06989014169166217  1.0000
  O   O1        1.0  0.6164054024333218  0.18000134578165142  0.2771894126037994  1.0000
  O   O2        1.0  0.4210380687335855  0.98544423785308  0.8626917947579561  1.0000
