data_image872
_chemical_formula_structural       BaTi2O4Ba
_chemical_formula_sum              "Ba2 Ti2 O4"
_cell_length_a       3.9940986770685525
_cell_length_b       5.846871098706958
_cell_length_c       5.853824615478515
_cell_angle_alpha    93.02525718197454
_cell_angle_beta     90.04452167910053
_cell_angle_gamma    90.0223235636732

_space_group_name_H-M_alt    "P 1"
_space_group_IT_number       1

loop_
  _space_group_symop_operation_xyz
  'x, y, z'

loop_
  _atom_site_type_symbol
  _atom_site_label
  _atom_site_symmetry_multiplicity
  _atom_site_fract_x
  _atom_site_fract_y
  _atom_site_fract_z
  _atom_site_occupancy
  Ba  Ba1       1.0  0.6789638149715256  0.05425578459107073  0.4474447412801747  1.0000
  Ti  Ti1       1.0  0.17883239887860908  0.025036177222160103  0.9637966689281647  1.0000
  Ti  Ti2       1.0  0.1788483554851817  0.569365176636542  0.41928370122598324  1.0000
  O   O1        1.0  0.6788739835359128  0.546830835038351  0.44194226049487983  1.0000
  O   O2        1.0  0.17902218159144373  0.8107286804235084  0.6975845214671159  1.0000
  O   O3        1.0  0.1786921305596279  0.2913676562879371  0.17809930076967567  1.0000
  O   O4        1.0  0.1788032853650132  0.800202286905807  0.18871253711871355  1.0000
  Ba  Ba2       1.0  0.678693314129031  0.5413618982322952  0.9344524510770865  1.0000
