data_image11
_chemical_formula_structural       TiBa2O2TiBaO4
_chemical_formula_sum              "Ti2 Ba3 O6"
_cell_length_a       4.052074062008887
_cell_length_b       4.053003875817308
_cell_length_c       11.529061317443846
_cell_angle_alpha    100.1380928707106
_cell_angle_beta     100.13357136523219
_cell_angle_gamma    89.95287424258913

_space_group_name_H-M_alt    "P 1"
_space_group_IT_number       1

loop_
  _space_group_symop_operation_xyz
  'x, y, z'

loop_
  _atom_site_type_symbol
  _atom_site_label
  _atom_site_symmetry_multiplicity
  _atom_site_fract_x
  _atom_site_fract_y
  _atom_site_fract_z
  _atom_site_occupancy
  Ti  Ti1       1.0  0.49693349172862444  0.07695916138292662  0.38391062031289425  1.0000
  Ba  Ba1       1.0  0.26842771652388536  0.8488264663648986  0.92671726966574  1.0000
  Ba  Ba2       1.0  0.9153479247556905  0.4954387093556468  0.22072379214393215  1.0000
  O   O1        1.0  0.9987682839650122  0.07890846142550076  0.38744174758249156  1.0000
  O   O2        1.0  0.4987494135407408  0.5790330361685456  0.38743551682983474  1.0000
  Ti  Ti2       1.0  0.6774228415576498  0.2577580350420037  0.7447218549166332  1.0000
  Ba  Ba3       1.0  0.09061820255503408  0.6708112224802335  0.5711692026675648  1.0000
  O   O3        1.0  0.5909705956908797  0.17122555435883338  0.5718339047456812  1.0000
  O   O4        1.0  0.18681591923675933  0.26716711007964394  0.7634802370317818  1.0000
  O   O5        1.0  0.686787457099849  0.7671416102957527  0.7634512985100578  1.0000
  O   O6        1.0  0.41004531761541035  0.9902596034506664  0.21021365825219493  1.0000
