data_image682
_chemical_formula_structural       Ba5TiO4BaOTiBaO2
_chemical_formula_sum              "Ba7 Ti2 O7"
_cell_length_a       6.427451459781094
_cell_length_b       7.728456692536322
_cell_length_c       9.681381225585938
_cell_angle_alpha    103.43287389405636
_cell_angle_beta     92.82488009120432
_cell_angle_gamma    113.06507239002126

_space_group_name_H-M_alt    "P 1"
_space_group_IT_number       1

loop_
  _space_group_symop_operation_xyz
  'x, y, z'

loop_
  _atom_site_type_symbol
  _atom_site_label
  _atom_site_symmetry_multiplicity
  _atom_site_fract_x
  _atom_site_fract_y
  _atom_site_fract_z
  _atom_site_occupancy
  Ba  Ba1       1.0  0.17081878771202902  0.7508467505694392  0.22802739115141016  1.0000
  Ba  Ba2       1.0  0.06333500508884064  0.5337434764127548  0.5989389839497983  1.0000
  Ba  Ba3       1.0  0.37452858912440856  0.22484923545781976  0.5315411698031192  1.0000
  Ba  Ba4       1.0  0.7172771259260956  0.8840402818951381  0.5735812057190917  1.0000
  Ba  Ba5       1.0  0.26941380775890755  0.0030312828756753982  0.9041105260593715  1.0000
  Ti  Ti1       1.0  0.4313196029905794  0.40766323087787876  0.2314469756353423  1.0000
  O   O1        1.0  0.11685024403946265  0.22954771951376557  0.7484110082503797  1.0000
  O   O2        1.0  0.7253534403609231  0.5322846115094986  0.20431601743188185  1.0000
  O   O3        1.0  0.38183942900825885  0.14967971241463016  0.22031947909828523  1.0000
  O   O4        1.0  0.21948108975506186  0.37676765163804166  0.06530929082995206  1.0000
  Ba  Ba6       1.0  0.6171084115903834  0.5647585369534569  0.9265556718302789  1.0000
  O   O5        1.0  0.056712388802948294  0.6043125406823617  0.9109069717141244  1.0000
  Ti  Ti2       1.0  0.00856516045086048  0.34650130965580794  0.8990290790155891  1.0000
  Ba  Ba7       1.0  0.8225160958540952  0.18972246915371835  0.20461024591728708  1.0000
  O   O6        1.0  0.7135663428126647  0.21710615443931217  0.9223932455308124  1.0000
  O   O7        1.0  0.3217592507973084  0.5239559197703115  0.3817785758901996  1.0000
