data_image977
_chemical_formula_structural       BaTiO2
_chemical_formula_sum              "Ba1 Ti1 O2"
_cell_length_a       4.015897318790801
_cell_length_b       4.013666682511221
_cell_length_c       4.1237006187438965
_cell_angle_alpha    89.99071344754066
_cell_angle_beta     89.99144427745554
_cell_angle_gamma    90.03207024100182

_space_group_name_H-M_alt    "P 1"
_space_group_IT_number       1

loop_
  _space_group_symop_operation_xyz
  'x, y, z'

loop_
  _atom_site_type_symbol
  _atom_site_label
  _atom_site_symmetry_multiplicity
  _atom_site_fract_x
  _atom_site_fract_y
  _atom_site_fract_z
  _atom_site_occupancy
  Ba  Ba1       1.0  0.42229284591158295  0.5256252326289028  0.5402637412307171  1.0000
  Ti  Ti1       1.0  0.9224084821509566  0.0256756874753854  0.0405504623728081  1.0000
  O   O1        1.0  0.9226914935609619  0.5257189646279552  0.04101287619828695  1.0000
  O   O2        1.0  0.4227951060403646  0.0257125758306616  0.04021460615428538  1.0000
