data_image988
_chemical_formula_structural       BaTiO2TiO2BaOTiO2
_chemical_formula_sum              "Ba2 Ti3 O7"
_cell_length_a       3.9949051582069117
_cell_length_b       4.0263303275726745
_cell_length_c       10.452727317810059
_cell_angle_alpha    101.08544110566683
_cell_angle_beta     89.96756593756274
_cell_angle_gamma    90.00817824152585

_space_group_name_H-M_alt    "P 1"
_space_group_IT_number       1

loop_
  _space_group_symop_operation_xyz
  'x, y, z'

loop_
  _atom_site_type_symbol
  _atom_site_label
  _atom_site_symmetry_multiplicity
  _atom_site_fract_x
  _atom_site_fract_y
  _atom_site_fract_z
  _atom_site_occupancy
  Ba  Ba1       1.0  0.5486529217988303  0.4865419566390384  0.35774540042475755  1.0000
  Ti  Ti1       1.0  0.0373513845498942  0.28614284999520795  0.9568679311266274  1.0000
  O   O1        1.0  0.03407554088890107  0.3835613935284703  0.15176025858139663  1.0000
  O   O2        1.0  0.04202287070383738  0.5889969933627782  0.5625112679329668  1.0000
  Ti  Ti2       1.0  0.07417076127460265  0.8904695541888219  0.1655566988364864  1.0000
  O   O3        1.0  0.04131449457879059  0.19481099766473392  0.7741668210160384  1.0000
  O   O4        1.0  0.5417467519547834  0.09040266101425354  0.5653055545216138  1.0000
  Ba  Ba2       1.0  0.5409460956760804  0.6822759738963623  0.7491518382461873  1.0000
  O   O5        1.0  0.5266324865155078  0.8950305767788787  0.1746736600484769  1.0000
  Ti  Ti3       1.0  0.04284794650755312  0.08408255405935648  0.5527548028168747  1.0000
  O   O6        1.0  0.03725187719889157  0.7903889665032102  0.9653677041846441  1.0000
  O   O7        1.0  0.04076269616460013  0.9902613343185172  0.3650543482143327  1.0000
