data_image279
_chemical_formula_structural       BaTi2BaTiBa2O2BaO2BaO
_chemical_formula_sum              "Ba6 Ti3 O5"
_cell_length_a       4.037497532142998
_cell_length_b       9.624734995640507
_cell_length_c       10.527161598205566
_cell_angle_alpha    98.27722177038035
_cell_angle_beta     89.97181431326331
_cell_angle_gamma    89.98302948475504

_space_group_name_H-M_alt    "P 1"
_space_group_IT_number       1

loop_
  _space_group_symop_operation_xyz
  'x, y, z'

loop_
  _atom_site_type_symbol
  _atom_site_label
  _atom_site_symmetry_multiplicity
  _atom_site_fract_x
  _atom_site_fract_y
  _atom_site_fract_z
  _atom_site_occupancy
  Ba  Ba1       1.0  0.7644669516682686  0.024452309677021944  0.883816872836607  1.0000
  Ti  Ti1       1.0  0.26434860164615076  0.9565414546509975  0.13393475371703176  1.0000
  Ti  Ti2       1.0  0.7643235472252373  0.07938524430061678  0.3061431471700311  1.0000
  Ba  Ba2       1.0  0.26447291066650097  0.34116538324791673  0.21025019339896814  1.0000
  Ti  Ti3       1.0  0.764232267230832  0.4781669667107008  0.4689546059286979  1.0000
  Ba  Ba3       1.0  0.7645202187315073  0.6666761182667718  0.05199210544781541  1.0000
  Ba  Ba4       1.0  0.2641516749972157  0.7874010627324945  0.41402827155424893  1.0000
  O   O1        1.0  0.2643077936700025  0.07433926203094672  0.3198451661072314  1.0000
  O   O2        1.0  0.7643387800645448  0.9520488932940528  0.13366772374561398  1.0000
  Ba  Ba5       1.0  0.26409833587616544  0.2228231592594843  0.5764392387750962  1.0000
  O   O3        1.0  0.26454740105143637  0.8426641460711265  0.9646421392212271  1.0000
  O   O4        1.0  0.7642376002593276  0.2785262733573182  0.3948718412690898  1.0000
  Ba  Ba6       1.0  0.2643879648758777  0.6526575806554628  0.7368129287406964  1.0000
  O   O5        1.0  0.26415230238380455  0.49069105008901237  0.4743821282958189  1.0000
