data_image672
_chemical_formula_structural       Ba2O3Ti2O3
_chemical_formula_sum              "Ba2 O6 Ti2"
_cell_length_a       4.048172797869632
_cell_length_b       4.0518155351924685
_cell_length_c       8.136250495910645
_cell_angle_alpha    89.89957140377568
_cell_angle_beta     89.87051577695233
_cell_angle_gamma    89.82747875960342

_space_group_name_H-M_alt    "P 1"
_space_group_IT_number       1

loop_
  _space_group_symop_operation_xyz
  'x, y, z'

loop_
  _atom_site_type_symbol
  _atom_site_label
  _atom_site_symmetry_multiplicity
  _atom_site_fract_x
  _atom_site_fract_y
  _atom_site_fract_z
  _atom_site_occupancy
  Ba  Ba1       1.0  0.966538935056538  0.8793242467194186  0.33674054174510865  1.0000
  Ba  Ba2       1.0  0.9668326200046367  0.8798889593862079  0.8369539563282629  1.0000
  O   O1        1.0  0.4541879830881051  0.36717440674835783  0.8240589843586815  1.0000
  O   O2        1.0  0.4532071575445298  0.8566812898484856  0.5792965787732789  1.0000
  O   O3        1.0  0.45368535815527844  0.8575169147979399  0.07939785458418802  1.0000
  Ti  Ti1       1.0  0.48043181865704654  0.39363978198608013  0.09420505188498605  1.0000
  Ti  Ti2       1.0  0.4804572946312522  0.3935759225054162  0.5941964938036189  1.0000
  O   O4        1.0  0.4539827177064407  0.3668187767785944  0.32395808835877926  1.0000
  O   O5        1.0  0.9448198694127156  0.3667040202447979  0.07929795953402545  1.0000
  O   O6        1.0  0.9443229149677544  0.3656642823360882  0.5792187964446046  1.0000
