data_image532
_chemical_formula_structural       OBaTiBaO5TiO2
_chemical_formula_sum              "O8 Ba2 Ti2"
_cell_length_a       3.9706359971557106
_cell_length_b       6.435974147363209
_cell_length_c       7.647988796234132
_cell_angle_alpha    100.18898542086978
_cell_angle_beta     104.85690795299632
_cell_angle_gamma    90.07219746533913

_space_group_name_H-M_alt    "P 1"
_space_group_IT_number       1

loop_
  _space_group_symop_operation_xyz
  'x, y, z'

loop_
  _atom_site_type_symbol
  _atom_site_label
  _atom_site_symmetry_multiplicity
  _atom_site_fract_x
  _atom_site_fract_y
  _atom_site_fract_z
  _atom_site_occupancy
  O   O1        1.0  0.9552812259936  0.4666612937061367  0.3241804237118116  1.0000
  Ba  Ba1       1.0  0.0025608635775558825  0.051786239195604745  0.4186928088467025  1.0000
  Ti  Ti1       1.0  0.47310421309983536  0.45553699340713416  0.35708467159276663  1.0000
  Ba  Ba2       1.0  0.7526784848887644  0.39053509917053303  0.9170642421509824  1.0000
  O   O2        1.0  0.4299988430567021  0.7534466700943587  0.2729485358752136  1.0000
  O   O3        1.0  0.8033521042280662  0.9472397588650849  0.019339072925925554  1.0000
  O   O4        1.0  0.5680210577868027  0.33130129081979026  0.5502118747593029  1.0000
  O   O5        1.0  0.18585596697211315  0.0833272047832745  0.7830210295116719  1.0000
  O   O6        1.0  0.37653390737492193  0.21237375470954553  0.16610105522388688  1.0000
  Ti  Ti2       1.0  0.2772711184278471  0.9462743961276897  0.9672891794727844  1.0000
  O   O7        1.0  0.24304250545080466  0.6587857587425875  0.8970402414805616  1.0000
  O   O8        1.0  0.5260417314441955  0.7753911866106081  0.46751268969791415  1.0000
