data_image564
_chemical_formula_structural       BaTiO3
_chemical_formula_sum              "Ba1 Ti1 O3"
_cell_length_a       4.038206394349449
_cell_length_b       4.037018714234179
_cell_length_c       4.034140110015869
_cell_angle_alpha    90.05478745161955
_cell_angle_beta     90.02185911205282
_cell_angle_gamma    90.06606409253577

_space_group_name_H-M_alt    "P 1"
_space_group_IT_number       1

loop_
  _space_group_symop_operation_xyz
  'x, y, z'

loop_
  _atom_site_type_symbol
  _atom_site_label
  _atom_site_symmetry_multiplicity
  _atom_site_fract_x
  _atom_site_fract_y
  _atom_site_fract_z
  _atom_site_occupancy
  Ba  Ba1       1.0  0.6280760169029236  0.7888083457946778  0.37606188654899597  1.0000
  Ti  Ti1       1.0  0.12794718146324158  0.28883504867553716  0.8762110471725464  1.0000
  O   O1        1.0  0.12798377871513367  0.2885974645614624  0.37601110339164734  1.0000
  O   O2        1.0  0.12785573303699493  0.7888600826263429  0.8763120174407959  1.0000
  O   O3        1.0  0.6280723810195923  0.2890493869781494  0.8759669065475465  1.0000
