data_image150
_chemical_formula_structural       BaTiBaOTiO4
_chemical_formula_sum              "Ba2 Ti2 O5"
_cell_length_a       4.076490998731432
_cell_length_b       6.000765926801157
_cell_length_c       6.4437432289123535
_cell_angle_alpha    105.44226036107223
_cell_angle_beta     89.98611673093224
_cell_angle_gamma    109.78535822918391

_space_group_name_H-M_alt    "P 1"
_space_group_IT_number       1

loop_
  _space_group_symop_operation_xyz
  'x, y, z'

loop_
  _atom_site_type_symbol
  _atom_site_label
  _atom_site_symmetry_multiplicity
  _atom_site_fract_x
  _atom_site_fract_y
  _atom_site_fract_z
  _atom_site_occupancy
  Ba  Ba1       1.0  0.4036574685600988  0.1675171748690478  0.03062212177719827  1.0000
  Ti  Ti1       1.0  0.9629535478083229  0.28672102599653987  0.6107730717104062  1.0000
  Ba  Ba2       1.0  0.20726164755943347  0.7747080187346611  0.3764651239886189  1.0000
  O   O1        1.0  0.6548084254400928  0.6695877821446468  0.08752694189317217  1.0000
  Ti  Ti2       1.0  0.6479547323931859  0.655537207143324  0.7962063856229863  1.0000
  O   O2        1.0  0.9561031229653124  0.27264180892876216  0.3194158506318028  1.0000
  O   O3        1.0  0.14641070503136566  0.652487239282494  0.7575782559272877  1.0000
  O   O4        1.0  0.8054703700844155  0.9711214395241887  0.7035121041572313  1.0000
  O   O5        1.0  0.4645135712987802  0.28975564870653236  0.6494981833855341  1.0000
