data_image653
_chemical_formula_structural       BaO2Ti
_chemical_formula_sum              "Ba1 O2 Ti1"
_cell_length_a       3.3299517386689046
_cell_length_b       3.3279065575972364
_cell_length_c       6.315533161163331
_cell_angle_alpha    74.75670588151439
_cell_angle_beta     74.73303375212198
_cell_angle_gamma    59.99954703656467

_space_group_name_H-M_alt    "P 1"
_space_group_IT_number       1

loop_
  _space_group_symop_operation_xyz
  'x, y, z'

loop_
  _atom_site_type_symbol
  _atom_site_label
  _atom_site_symmetry_multiplicity
  _atom_site_fract_x
  _atom_site_fract_y
  _atom_site_fract_z
  _atom_site_occupancy
  Ba  Ba1       1.0  0.8270748497601339  0.469152910980851  0.4445339393771783  1.0000
  O   O1        1.0  0.04852978906459726  0.6905808579023947  0.7796929024673731  1.0000
  O   O2        1.0  0.6051690211124926  0.24744620882636317  0.10955598505951122  1.0000
  Ti  Ti1       1.0  0.32666428932399705  0.9688565761442856  0.9449002821496487  1.0000
