data_image740
_chemical_formula_structural       OTiOBaTiBaO4
_chemical_formula_sum              "O6 Ti2 Ba2"
_cell_length_a       4.0357607230904
_cell_length_b       6.245659508198346
_cell_length_c       7.987152099609375
_cell_angle_alpha    112.46766365959877
_cell_angle_beta     89.9544724599762
_cell_angle_gamma    89.99188823975003

_space_group_name_H-M_alt    "P 1"
_space_group_IT_number       1

loop_
  _space_group_symop_operation_xyz
  'x, y, z'

loop_
  _atom_site_type_symbol
  _atom_site_label
  _atom_site_symmetry_multiplicity
  _atom_site_fract_x
  _atom_site_fract_y
  _atom_site_fract_z
  _atom_site_occupancy
  O   O1        1.0  0.26811165915193413  0.7127191621249932  0.2776390475151733  1.0000
  Ti  Ti1       1.0  0.7682698738747017  0.2455577891856683  0.8059896114989624  1.0000
  O   O2        1.0  0.26808661139469053  0.2593952553611386  0.2806352854988184  1.0000
  Ba  Ba1       1.0  0.26832643827162944  0.6478919908617935  0.6071308313756821  1.0000
  Ti  Ti2       1.0  0.26818274073374393  0.41129340530769004  0.12974127311690856  1.0000
  Ba  Ba2       1.0  0.7681430987631986  0.009689036409767126  0.32855535933777524  1.0000
  O   O3        1.0  0.7683766280708995  0.9444967541138497  0.6568794335999888  1.0000
  O   O4        1.0  0.7681356470094097  0.3846990761542061  0.07479917987107791  1.0000
  O   O5        1.0  0.7683816827486109  0.39898572966257073  0.6562779087082512  1.0000
  O   O6        1.0  0.26834978582452684  0.27112353058128935  0.8609638790548249  1.0000
