data_image104
_chemical_formula_structural       TiBa2O5TiO
_chemical_formula_sum              "Ti2 Ba2 O6"
_cell_length_a       4.0570414613677785
_cell_length_b       4.062378082345999
_cell_length_c       8.147453308105469
_cell_angle_alpha    89.9248909152573
_cell_angle_beta     89.95508034610367
_cell_angle_gamma    89.87022891258573

_space_group_name_H-M_alt    "P 1"
_space_group_IT_number       1

loop_
  _space_group_symop_operation_xyz
  'x, y, z'

loop_
  _atom_site_type_symbol
  _atom_site_label
  _atom_site_symmetry_multiplicity
  _atom_site_fract_x
  _atom_site_fract_y
  _atom_site_fract_z
  _atom_site_occupancy
  Ti  Ti1       1.0  0.23733696415209826  0.49023968965682513  0.8072942682849327  1.0000
  Ba  Ba1       1.0  0.7375955614269581  0.9906227329044384  0.057065641714909375  1.0000
  Ba  Ba2       1.0  0.7376246958874062  0.9905554870653559  0.5573137436773417  1.0000
  O   O1        1.0  0.23761103043418824  0.4907046063469242  0.5571514977634761  1.0000
  O   O2        1.0  0.2376983109550174  0.4907641112992817  0.056991022360060345  1.0000
  O   O3        1.0  0.7378012555053997  0.49058113324111446  0.807154757025159  1.0000
  O   O4        1.0  0.7378787330224885  0.49074996618863354  0.3071373298340813  1.0000
  O   O5        1.0  0.2378108269688274  0.9909241143001779  0.30710741636374395  1.0000
  Ti  Ti2       1.0  0.23747147073279332  0.49039195777739636  0.3072978843316798  1.0000
  O   O6        1.0  0.23764878268673417  0.9908653305560506  0.8071822357754646  1.0000
