data_image111
_chemical_formula_structural       BaTiO2Ba2O2TiO3TiO2TiO2
_chemical_formula_sum              "Ba3 Ti4 O11"
_cell_length_a       4.882045211808918
_cell_length_b       5.900885261770678
_cell_length_c       10.759870529174805
_cell_angle_alpha    90.79502967494705
_cell_angle_beta     101.98902606644818
_cell_angle_gamma    89.46030147286427

_space_group_name_H-M_alt    "P 1"
_space_group_IT_number       1

loop_
  _space_group_symop_operation_xyz
  'x, y, z'

loop_
  _atom_site_type_symbol
  _atom_site_label
  _atom_site_symmetry_multiplicity
  _atom_site_fract_x
  _atom_site_fract_y
  _atom_site_fract_z
  _atom_site_occupancy
  Ba  Ba1       1.0  0.9315521402884359  0.3370221708771659  0.46106287410939356  1.0000
  Ti  Ti1       1.0  0.5203633824280699  0.8319539608651972  0.5383016671749848  1.0000
  O   O1        1.0  0.7307297271612015  0.3208647504084916  0.9364436775092478  1.0000
  O   O2        1.0  0.1849365834135699  0.015274435281411463  0.9173315343863615  1.0000
  Ba  Ba2       1.0  0.6855031557266694  0.8020501700738566  0.9502066581674337  1.0000
  Ba  Ba3       1.0  0.27521352933404064  0.8005808493389766  0.22682153835286883  1.0000
  O   O3        1.0  0.05825388176838189  0.6202577560397682  0.8140097792868702  1.0000
  O   O4        1.0  0.28252504239786896  0.43245855498122565  0.048714176001214256  1.0000
  Ti  Ti2       1.0  0.6438938732035361  0.32294297760327056  0.10240781566333776  1.0000
  O   O5        1.0  0.40369329605717214  0.061863433674743194  0.43578232293761876  1.0000
  O   O6        1.0  0.40311352981018184  0.5839764607501883  0.4472250100652545  1.0000
  O   O7        1.0  0.7171802441135727  0.047069148393524725  0.17026871222556939  1.0000
  Ti  Ti3       1.0  0.06107237726728962  0.31922257038786395  0.8811418676049261  1.0000
  O   O8        1.0  0.9113463667271235  0.8084503483301311  0.5632524883316337  1.0000
  O   O9        1.0  0.46251962079093656  0.8702983692888348  0.7085660053191233  1.0000
  Ti  Ti4       1.0  0.10346416800483776  0.8939902040503728  0.7309157188707438  1.0000
  O   O10       1.0  0.9897668870290157  0.20063593710544847  0.7090073126235156  1.0000
  O   O11       1.0  0.8024590289032597  0.5424877172518358  0.20785451900980392  1.0000
