data_image535
_chemical_formula_structural       TiBa2TiO6
_chemical_formula_sum              "Ti2 Ba2 O6"
_cell_length_a       4.111626092945864
_cell_length_b       4.147228765509934
_cell_length_c       7.976528644561768
_cell_angle_alpha    90.00869050548545
_cell_angle_beta     89.9740546170803
_cell_angle_gamma    89.3675816562341

_space_group_name_H-M_alt    "P 1"
_space_group_IT_number       1

loop_
  _space_group_symop_operation_xyz
  'x, y, z'

loop_
  _atom_site_type_symbol
  _atom_site_label
  _atom_site_symmetry_multiplicity
  _atom_site_fract_x
  _atom_site_fract_y
  _atom_site_fract_z
  _atom_site_occupancy
  Ti  Ti1       1.0  0.3828705247714937  0.4133083749243536  0.7928507110639198  1.0000
  Ba  Ba1       1.0  0.8666464063550368  0.8958527688769978  0.542889874015227  1.0000
  Ba  Ba2       1.0  0.86658279496487  0.8958104940449348  0.04292821002868967  1.0000
  Ti  Ti2       1.0  0.3833108862861935  0.4133822918564945  0.2928495171228717  1.0000
  O   O1        1.0  0.3437197086958048  0.37071601737230575  0.542925845557292  1.0000
  O   O2        1.0  0.35058859968335954  0.8575255605321377  0.7929327029999486  1.0000
  O   O3        1.0  0.3510700892978389  0.8575121817569308  0.29289914557333624  1.0000
  O   O4        1.0  0.3436761817984604  0.370610858350448  0.04299695221629177  1.0000
  O   O5        1.0  0.8329946646910769  0.3769782599992888  0.7928957880616495  1.0000
  O   O6        1.0  0.8332771754623528  0.3768411971094776  0.29296345344793373  1.0000
