data_image772
_chemical_formula_structural       TiBa2TiO6
_chemical_formula_sum              "Ti2 Ba2 O6"
_cell_length_a       4.184654873595626
_cell_length_b       5.668162327256047
_cell_length_c       5.668773651123048
_cell_angle_alpha    90.03291035381493
_cell_angle_beta     90.0158895268345
_cell_angle_gamma    90.01148405321844

_space_group_name_H-M_alt    "P 1"
_space_group_IT_number       1

loop_
  _space_group_symop_operation_xyz
  'x, y, z'

loop_
  _atom_site_type_symbol
  _atom_site_label
  _atom_site_symmetry_multiplicity
  _atom_site_fract_x
  _atom_site_fract_y
  _atom_site_fract_z
  _atom_site_occupancy
  Ti  Ti1       1.0  0.16083222048449705  0.1201854551454551  0.32480829157988084  1.0000
  Ba  Ba1       1.0  0.6800667559610404  0.6207012870022768  0.3240508540940671  1.0000
  Ba  Ba2       1.0  0.6800795881129  0.12064892375020372  0.8240343693640044  1.0000
  Ti  Ti2       1.0  0.16084171278622622  0.6201165417181955  0.8247873951734112  1.0000
  O   O1        1.0  0.20496635250900327  0.8713731289779751  0.5731950893447445  1.0000
  O   O2        1.0  0.20491198134474747  0.37141948412963394  0.07325257912231295  1.0000
  O   O3        1.0  0.20511391044363886  0.8710256060678642  0.07346992445562112  1.0000
  O   O4        1.0  0.2050773882311615  0.37102487810294027  0.5734786884119185  1.0000
  O   O5        1.0  0.7244485914216895  0.12095859374261407  0.32374855431606764  1.0000
  O   O6        1.0  0.7244751362536602  0.6209051753876708  0.8236854268002266  1.0000
