data_image516
_chemical_formula_structural       Ba3TiBaO3
_chemical_formula_sum              "Ba4 Ti1 O3"
_cell_length_a       7.109204856167229
_cell_length_b       7.148162987622261
_cell_length_c       7.343509674072266
_cell_angle_alpha    118.06208608021656
_cell_angle_beta     103.56459441925013
_cell_angle_gamma    105.62650453634751

_space_group_name_H-M_alt    "P 1"
_space_group_IT_number       1

loop_
  _space_group_symop_operation_xyz
  'x, y, z'

loop_
  _atom_site_type_symbol
  _atom_site_label
  _atom_site_symmetry_multiplicity
  _atom_site_fract_x
  _atom_site_fract_y
  _atom_site_fract_z
  _atom_site_occupancy
  Ba  Ba1       1.0  0.10363539162503738  0.027810897484584172  0.026847037960292655  1.0000
  Ba  Ba2       1.0  0.13075334773709496  0.7004884667386505  0.40270618387436025  1.0000
  Ba  Ba3       1.0  0.8002690751885825  0.21172118405715865  0.5877713456178149  1.0000
  Ti  Ti1       1.0  0.621704800728871  0.6099612557808459  0.49855926304198966  1.0000
  Ba  Ba4       1.0  0.49010027195837474  0.5604391014479587  0.9514079444781698  1.0000
  O   O1        1.0  0.7392468656206612  0.5986825341791152  0.7489619832619303  1.0000
  O   O2        1.0  0.8584759261057142  0.8490583979352552  0.5546760652574775  1.0000
  O   O3        1.0  0.3677491903793988  0.4839886929729162  0.24052581382117  1.0000
