data_image5
_chemical_formula_structural       TiBaTiBaO2Ti2O8
_chemical_formula_sum              "Ti4 Ba2 O10"
_cell_length_a       3.8914663778344707
_cell_length_b       3.8507162932551307
_cell_length_c       15.51861572265625
_cell_angle_alpha    82.94785273906562
_cell_angle_beta     89.87475732442788
_cell_angle_gamma    89.97477178533526

_space_group_name_H-M_alt    "P 1"
_space_group_IT_number       1

loop_
  _space_group_symop_operation_xyz
  'x, y, z'

loop_
  _atom_site_type_symbol
  _atom_site_label
  _atom_site_symmetry_multiplicity
  _atom_site_fract_x
  _atom_site_fract_y
  _atom_site_fract_z
  _atom_site_occupancy
  Ti  Ti1       1.0  0.5942608475444212  0.2983475979374536  0.7492916898549111  1.0000
  Ba  Ba1       1.0  0.06956508873494995  0.9105942464308897  0.5672083949095658  1.0000
  Ti  Ti2       1.0  0.5646671414163972  0.484797134148807  0.41736763304389213  1.0000
  Ba  Ba2       1.0  0.061171146697024094  0.6129180028923399  0.1965601234685219  1.0000
  O   O1        1.0  0.568706402832984  0.9655998470854169  0.4542956448049038  1.0000
  O   O2        1.0  0.5620159255399568  0.5432588094257683  0.303359638731612  1.0000
  Ti  Ti3       1.0  0.2836578959249439  0.8291409045098708  0.8839607610502823  1.0000
  Ti  Ti4       1.0  0.5722907207845388  0.1750600087289184  0.0256649095983634  1.0000
  O   O3        1.0  0.5430764345013109  0.7728409394875387  0.7845043862921421  1.0000
  O   O4        1.0  0.5708346453514072  0.3765385391143678  0.6355906492148975  1.0000
  O   O5        1.0  0.5093756675489234  0.6845145614029668  0.9914189410660987  1.0000
  O   O6        1.0  0.031070973485319495  0.1319329336030552  0.010248056217499605  1.0000
  O   O7        1.0  0.053619714353678696  0.2116509928908644  0.7740479120648732  1.0000
  O   O8        1.0  0.5434452163519896  0.13813835015845444  0.1413641572728899  1.0000
  O   O9        1.0  0.4771087228191842  0.2454279286076649  0.8881829463922707  1.0000
  O   O10       1.0  0.06806930773399535  0.4677438465755719  0.44998446848077817  1.0000
