data_image998
_chemical_formula_structural       OBaTiOBaO3TiO2
_chemical_formula_sum              "O7 Ba2 Ti2"
_cell_length_a       3.9493171526044133
_cell_length_b       3.9479642746494914
_cell_length_c       11.22529697418213
_cell_angle_alpha    100.04494273813087
_cell_angle_beta     100.07063885269939
_cell_angle_gamma    90.0281223755292

_space_group_name_H-M_alt    "P 1"
_space_group_IT_number       1

loop_
  _space_group_symop_operation_xyz
  'x, y, z'

loop_
  _atom_site_type_symbol
  _atom_site_label
  _atom_site_symmetry_multiplicity
  _atom_site_fract_x
  _atom_site_fract_y
  _atom_site_fract_z
  _atom_site_occupancy
  O   O1        1.0  0.5709164432106913  0.37287279070763  0.5752255474078501  1.0000
  Ba  Ba1       1.0  0.3492487677609293  0.6506699167089649  0.13124597103703087  1.0000
  Ti  Ti1       1.0  0.7524218420278471  0.054232082818284115  0.9358631871350956  1.0000
  O   O2        1.0  0.4777468532752386  0.7794710393399995  0.38822452883191505  1.0000
  Ba  Ba2       1.0  0.9865439881223097  0.28818309019975397  0.4061697703210284  1.0000
  O   O3        1.0  0.7648786559503452  0.5658274649879458  0.96217110243385  1.0000
  O   O4        1.0  0.6678882415972549  0.9694013409825265  0.7686212659954047  1.0000
  O   O5        1.0  0.07129947788638086  0.8725036598418484  0.5753045734848882  1.0000
  Ti  Ti2       1.0  0.5830811583188621  0.8844935602399738  0.6009286607747228  1.0000
  O   O6        1.0  0.2645423024498602  0.06630442043946765  0.9621761192119834  1.0000
  O   O7        1.0  0.858459749815787  0.15978697397847835  0.1500405134581597  1.0000
