data_image678
_chemical_formula_structural       BaTiBaTi2O3TiO7
_chemical_formula_sum              "Ba2 Ti4 O10"
_cell_length_a       3.812357819925368
_cell_length_b       6.6236309639613
_cell_length_c       9.433133125305176
_cell_angle_alpha    93.62994086216716
_cell_angle_beta     90.01638129951051
_cell_angle_gamma    90.02645582741943

_space_group_name_H-M_alt    "P 1"
_space_group_IT_number       1

loop_
  _space_group_symop_operation_xyz
  'x, y, z'

loop_
  _atom_site_type_symbol
  _atom_site_label
  _atom_site_symmetry_multiplicity
  _atom_site_fract_x
  _atom_site_fract_y
  _atom_site_fract_z
  _atom_site_occupancy
  Ba  Ba1       1.0  0.4107525417082645  0.2792870711807391  0.38208198682797784  1.0000
  Ti  Ti1       1.0  0.4107144115402026  0.511469295204515  0.011488338114014125  1.0000
  Ba  Ba2       1.0  0.4107324646640763  0.013860213984384437  0.7629885352293592  1.0000
  Ti  Ti2       1.0  0.910846851908605  0.8082845838706251  0.44506416744853083  1.0000
  Ti  Ti3       1.0  0.9106369016530602  0.48976988272731714  0.7456978924773092  1.0000
  O   O1        1.0  0.9108055177238523  0.9927843144384606  0.28732344150924094  1.0000
  O   O2        1.0  0.9107897506319698  0.5730629700177393  0.3558113393065269  1.0000
  O   O3        1.0  0.4107413423106486  0.31171981812891664  0.1128688566478641  1.0000
  Ti  Ti4       1.0  0.9109363586205543  0.8630947328469342  0.1043125644447882  1.0000
  O   O4        1.0  0.9108794354957381  0.01349284890614044  0.9613324494399631  1.0000
  O   O5        1.0  0.9107092301979702  0.7210648480255765  0.6567281610631079  1.0000
  O   O6        1.0  0.4106208928421211  0.44492148735428994  0.8034642599904351  1.0000
  O   O7        1.0  0.4108812899717181  0.7752411358279453  0.11074487046793424  1.0000
  O   O8        1.0  0.9107379092299195  0.5764261957591433  0.969878336650372  1.0000
  O   O9        1.0  0.9104934676614725  0.2687012889477167  0.6271744123537673  1.0000
  O   O10       1.0  0.4107406263753247  0.8839690436395619  0.4845421176034979  1.0000
