data_image805
_chemical_formula_structural       TiO2Ba2TiO4
_chemical_formula_sum              "Ti2 O6 Ba2"
_cell_length_a       4.076772567553487
_cell_length_b       6.2467833435739895
_cell_length_c       7.717482566833496
_cell_angle_alpha    112.86875864797084
_cell_angle_beta     89.97610367110836
_cell_angle_gamma    89.99683329787904

_space_group_name_H-M_alt    "P 1"
_space_group_IT_number       1

loop_
  _space_group_symop_operation_xyz
  'x, y, z'

loop_
  _atom_site_type_symbol
  _atom_site_label
  _atom_site_symmetry_multiplicity
  _atom_site_fract_x
  _atom_site_fract_y
  _atom_site_fract_z
  _atom_site_occupancy
  Ti  Ti1       1.0  0.3845412347066377  0.9860320968084192  0.128259726915943  1.0000
  O   O1        1.0  0.3845861125534456  0.9465709751128285  0.8654047279297313  1.0000
  O   O2        1.0  0.884727260070058  0.6906712454480697  0.6219213419600867  1.0000
  Ba  Ba1       1.0  0.3846438965661106  0.44045508971589475  0.6978510826475004  1.0000
  Ba  Ba2       1.0  0.8844441117931141  0.5122822003628758  0.2512568447909141  1.0000
  Ti  Ti2       1.0  0.8846343317942  0.9666766306154788  0.8206300568883558  1.0000
  O   O3        1.0  0.38447278264017315  0.7170024235209661  0.15846984789743707  1.0000
  O   O4        1.0  0.8845181899257073  0.006331661319547537  0.0835344051517957  1.0000
  O   O5        1.0  0.3843612654569654  0.2619524198301296  0.32707873178784785  1.0000
  O   O6        1.0  0.8846195300949414  0.23544676807508017  0.7900795869269527  1.0000
