data_image278
_chemical_formula_structural       TiBaOBa2O2TiOBaOBaO4Ti2O2
_chemical_formula_sum              "Ti4 Ba5 O11"
_cell_length_a       5.796828130593629
_cell_length_b       5.892316224434862
_cell_length_c       10.31117248535156
_cell_angle_alpha    93.08093034585247
_cell_angle_beta     89.8844835146757
_cell_angle_gamma    119.31298272641688

_space_group_name_H-M_alt    "P 1"
_space_group_IT_number       1

loop_
  _space_group_symop_operation_xyz
  'x, y, z'

loop_
  _atom_site_type_symbol
  _atom_site_label
  _atom_site_symmetry_multiplicity
  _atom_site_fract_x
  _atom_site_fract_y
  _atom_site_fract_z
  _atom_site_occupancy
  Ti  Ti1       1.0  0.6397327022958853  0.8027876482150776  0.5478294902598472  1.0000
  Ba  Ba1       1.0  0.30507589244404243  0.13292370535656892  0.4110778187702715  1.0000
  O   O1        1.0  0.7498819927044642  0.017924097201198967  0.7223139770404461  1.0000
  Ba  Ba2       1.0  0.9471144009586141  0.41527372744975505  0.9999449869846938  1.0000
  Ba  Ba3       1.0  0.6261219071849681  0.774146851784369  0.20536837925863308  1.0000
  O   O2        1.0  0.5020704730020601  0.529793121471549  0.6884980163142743  1.0000
  O   O3        1.0  0.8049652326782871  0.6382495681157551  0.4426175503326722  1.0000
  Ti  Ti2       1.0  0.6123195878890335  0.7451269923704013  0.8630245307652643  1.0000
  O   O4        1.0  0.3103559550760609  0.6387265826737889  0.44279961376046795  1.0000
  Ba  Ba4       1.0  0.2807283536380564  0.08198511872727096  0.779260751553085  1.0000
  O   O5        1.0  0.44985646537242296  0.42035927851899935  0.9708471428643057  1.0000
  Ba  Ba5       1.0  0.9712970819917498  0.4658780596227606  0.6318362099041203  1.0000
  O   O6        1.0  0.9417908827732053  0.909576619376213  0.9683366889501128  1.0000
  O   O7        1.0  0.1261281840160774  0.7741415714704799  0.2055405035140878  1.0000
  O   O8        1.0  0.44733345196294616  0.9100071951123132  0.9685007948778779  1.0000
  O   O9        1.0  0.6261288017216479  0.27415191131333905  0.20553284984831954  1.0000
  Ti  Ti3       1.0  0.9654624841671037  0.45370590906967795  0.3174820927065103  1.0000
  Ti  Ti4       1.0  0.28674634672619054  0.0945090111038042  0.09350479683711628  1.0000
  O   O10       1.0  0.12616198429183792  0.27417305008724013  0.2055369648084063  1.0000
  O   O11       1.0  0.802309719892159  0.1277394012765408  0.4401993338959278  1.0000
