data_image1009
_chemical_formula_structural       O2BaTi
_chemical_formula_sum              "O2 Ba1 Ti1"
_cell_length_a       3.268356858493254
_cell_length_b       3.268195438028205
_cell_length_c       6.527356147766113
_cell_angle_alpha    75.48039346057753
_cell_angle_beta     75.42791581096161
_cell_angle_gamma    59.93818347151726

_space_group_name_H-M_alt    "P 1"
_space_group_IT_number       1

loop_
  _space_group_symop_operation_xyz
  'x, y, z'

loop_
  _atom_site_type_symbol
  _atom_site_label
  _atom_site_symmetry_multiplicity
  _atom_site_fract_x
  _atom_site_fract_y
  _atom_site_fract_z
  _atom_site_occupancy
  O   O1        1.0  0.341583132938023  0.8901405818657495  0.8719385758003899  1.0000
  O   O2        1.0  0.5651612558318411  0.11412798767477768  0.19991063209141616  1.0000
  Ba  Ba1       1.0  0.1221092053116883  0.6703898128640867  0.5282783510544403  1.0000
  Ti  Ti1       1.0  0.9527583221617045  0.5016179558987569  0.037985296742399755  1.0000
