data_image747
_chemical_formula_structural       BaTi2O2BaO4
_chemical_formula_sum              "Ba2 Ti2 O6"
_cell_length_a       4.2482595725774726
_cell_length_b       5.668063286504657
_cell_length_c       5.660300254821778
_cell_angle_alpha    90.05878993716814
_cell_angle_beta     89.99339771151561
_cell_angle_gamma    89.98990065447562

_space_group_name_H-M_alt    "P 1"
_space_group_IT_number       1

loop_
  _space_group_symop_operation_xyz
  'x, y, z'

loop_
  _atom_site_type_symbol
  _atom_site_label
  _atom_site_symmetry_multiplicity
  _atom_site_fract_x
  _atom_site_fract_y
  _atom_site_fract_z
  _atom_site_occupancy
  Ba  Ba1       1.0  0.6126422713592636  0.2622358299719719  0.6053255458601  1.0000
  Ti  Ti1       1.0  0.09388725006568235  0.7622496876332864  0.6059879699165838  1.0000
  Ti  Ti2       1.0  0.09388222502057017  0.26221074256817106  0.10597874384454993  1.0000
  O   O1        1.0  0.1429470167060496  0.011958877194203583  0.8547053279704366  1.0000
  O   O2        1.0  0.6664171914449049  0.26212352462357563  0.10516627497346198  1.0000
  Ba  Ba2       1.0  0.6126842509017995  0.7622259322659173  0.10537167976956055  1.0000
  O   O3        1.0  0.14259610938665201  0.512260660428327  0.85483824096379  1.0000
  O   O4        1.0  0.1427087542078375  0.012249623555273557  0.35479124336655954  1.0000
  O   O5        1.0  0.14300429591289351  0.5119987427823537  0.3547013700595357  1.0000
  O   O6        1.0  0.666368433992092  0.7622731484109229  0.6050748987444678  1.0000
