data_image153
_chemical_formula_structural       O2BaOTiO3BaOTiBa
_chemical_formula_sum              "O7 Ba3 Ti2"
_cell_length_a       4.085075745313229
_cell_length_b       4.084805704655183
_cell_length_c       11.1015625
_cell_angle_alpha    100.51841990913638
_cell_angle_beta     100.52976366725461
_cell_angle_gamma    89.76270115964033

_space_group_name_H-M_alt    "P 1"
_space_group_IT_number       1

loop_
  _space_group_symop_operation_xyz
  'x, y, z'

loop_
  _atom_site_type_symbol
  _atom_site_label
  _atom_site_symmetry_multiplicity
  _atom_site_fract_x
  _atom_site_fract_y
  _atom_site_fract_z
  _atom_site_occupancy
  O   O1        1.0  0.17982951592971858  0.4041617470389663  0.7860222181233396  1.0000
  O   O2        1.0  0.991386744471373  0.21546624884378068  0.408598954152478  1.0000
  Ba  Ba1       1.0  0.9274477901588194  0.6394676944434818  0.23167967036588238  1.0000
  O   O3        1.0  0.5923540889789957  0.3043417194635061  0.59737394615671  1.0000
  Ti  Ti1       1.0  0.7191399316416346  0.43116591202014215  0.7867594686578963  1.0000
  O   O4        1.0  0.6920549664831149  0.8918651405002288  0.7860111334679838  1.0000
  O   O5        1.0  0.5035608648620551  0.7033345350056485  0.40860284366761584  1.0000
  O   O6        1.0  0.40957636448483026  0.12145753346717962  0.22567745809618484  1.0000
  Ba  Ba2       1.0  0.11068923419974984  0.8226983840209221  0.5973625587276236  1.0000
  O   O7        1.0  0.7794948670497802  0.49152985931379645  0.9689517189420559  1.0000
  Ti  Ti2       1.0  0.5301582964821787  0.2419197836257326  0.40800110228319914  1.0000
  Ba  Ba3       1.0  0.29227900714267785  0.004262616043656273  0.9630014521000605  1.0000
