data_image456
_chemical_formula_structural       TiBaO2
_chemical_formula_sum              "Ti1 Ba1 O2"
_cell_length_a       3.8862706168579852
_cell_length_b       4.405886288256265
_cell_length_c       4.440544605255128
_cell_angle_alpha    89.88615009328778
_cell_angle_beta     89.73044223626223
_cell_angle_gamma    89.7221299271194

_space_group_name_H-M_alt    "P 1"
_space_group_IT_number       1

loop_
  _space_group_symop_operation_xyz
  'x, y, z'

loop_
  _atom_site_type_symbol
  _atom_site_label
  _atom_site_symmetry_multiplicity
  _atom_site_fract_x
  _atom_site_fract_y
  _atom_site_fract_z
  _atom_site_occupancy
  Ti  Ti1       1.0  0.7267618258868987  0.6018289305147834  0.43659982231833105  1.0000
  Ba  Ba1       1.0  0.22641277124117315  0.11903174358552436  0.9527905682528041  1.0000
  O   O1        1.0  0.7272792504025894  0.18233781250829684  0.47775285919974153  1.0000
  O   O2        1.0  0.7273160300456242  0.6421448583754183  0.021684402605217423  1.0000
