data_image820
_chemical_formula_structural       OBaTiBaTiO5
_chemical_formula_sum              "O6 Ba2 Ti2"
_cell_length_a       5.137179922709112
_cell_length_b       5.889464461141218
_cell_length_c       5.887491703033447
_cell_angle_alpha    119.99478773526373
_cell_angle_beta     89.94398128972178
_cell_angle_gamma    90.09735318844908

_space_group_name_H-M_alt    "P 1"
_space_group_IT_number       1

loop_
  _space_group_symop_operation_xyz
  'x, y, z'

loop_
  _atom_site_type_symbol
  _atom_site_label
  _atom_site_symmetry_multiplicity
  _atom_site_fract_x
  _atom_site_fract_y
  _atom_site_fract_z
  _atom_site_occupancy
  O   O1        1.0  0.9980238323611196  0.2081753221500449  0.060430167835007764  1.0000
  Ba  Ba1       1.0  0.9186094154791643  0.1754358019953924  0.543546379871317  1.0000
  Ti  Ti1       1.0  0.20767519071465193  0.5079132274323603  0.21094567664657854  1.0000
  Ba  Ba2       1.0  0.41859744414237166  0.8419668868287008  0.87713759785023  1.0000
  Ti  Ti2       1.0  0.7076607820854692  0.5090112578463732  0.20976241144243035  1.0000
  O   O2        1.0  0.9984013744543714  0.6584737048975946  0.5107516813919221  1.0000
  O   O3        1.0  0.998723312810059  0.658201189951365  0.06047809991878012  1.0000
  O   O4        1.0  0.4988550221620018  0.8087679046357542  0.3603169042042603  1.0000
  O   O5        1.0  0.4978004029515263  0.35871178443679225  0.3601836279459841  1.0000
  O   O6        1.0  0.49849422122870507  0.35847290811057325  0.9099729598633923  1.0000
