data_image198
_chemical_formula_structural       Ba2O2BaO2Ti2O3
_chemical_formula_sum              "Ba3 O7 Ti2"
_cell_length_a       4.062635743398936
_cell_length_b       4.064041766902722
_cell_length_c       11.082275390625
_cell_angle_alpha    100.49929347759448
_cell_angle_beta     100.48761500008473
_cell_angle_gamma    89.87158125890151

_space_group_name_H-M_alt    "P 1"
_space_group_IT_number       1

loop_
  _space_group_symop_operation_xyz
  'x, y, z'

loop_
  _atom_site_type_symbol
  _atom_site_label
  _atom_site_symmetry_multiplicity
  _atom_site_fract_x
  _atom_site_fract_y
  _atom_site_fract_z
  _atom_site_occupancy
  Ba  Ba1       1.0  0.6434563201442433  0.5146718343645125  0.9322543103516586  1.0000
  Ba  Ba2       1.0  0.4552394728141245  0.3266115854429823  0.5660162595082927  1.0000
  O   O1        1.0  0.13446606759466603  0.005729879055468438  0.9383640858084257  1.0000
  O   O2        1.0  0.8651438240361881  0.2455182919785608  0.377112842718076  1.0000
  Ba  Ba3       1.0  0.2671083663495196  0.1383792294898796  0.1998473450444172  1.0000
  O   O3        1.0  0.5361100696518514  0.9159470586616574  0.7549684888062245  1.0000
  O   O4        1.0  0.7756284505613613  0.646880073085214  0.19377693152518183  1.0000
  Ti  Ti1       1.0  0.06881555691366169  0.9402133901312932  0.7558109787610858  1.0000
  Ti  Ti2       1.0  0.8416763476304391  0.7128499338931096  0.3762852710622935  1.0000
  O   O5        1.0  0.044949700171069494  0.4071306923207502  0.7549786150644611  1.0000
  O   O6        1.0  0.9549123730006129  0.826292422443858  0.5660019989285539  1.0000
  O   O7        1.0  0.3739226258660146  0.736732965670174  0.3771278036222452  1.0000
