data_image906
_chemical_formula_structural       BaTiBaTiBaO5BaO3
_chemical_formula_sum              "Ba4 Ti2 O8"
_cell_length_a       5.400951362506567
_cell_length_b       6.2410909212739805
_cell_length_c       9.429079055786133
_cell_angle_alpha    67.7672440392247
_cell_angle_beta     77.42115735331356
_cell_angle_gamma    68.58098047065403

_space_group_name_H-M_alt    "P 1"
_space_group_IT_number       1

loop_
  _space_group_symop_operation_xyz
  'x, y, z'

loop_
  _atom_site_type_symbol
  _atom_site_label
  _atom_site_symmetry_multiplicity
  _atom_site_fract_x
  _atom_site_fract_y
  _atom_site_fract_z
  _atom_site_occupancy
  Ba  Ba1       1.0  0.7996491510771275  0.1799311928620026  0.7119941575692049  1.0000
  Ti  Ti1       1.0  0.0881578381228477  0.5421660985570548  0.8108923707332634  1.0000
  Ba  Ba2       1.0  0.9413144626886545  0.2538664207745259  0.20368519202409915  1.0000
  Ti  Ti2       1.0  0.2171407245821864  0.47549211975831823  0.3973034782516209  1.0000
  Ba  Ba3       1.0  0.5057802240962981  0.838015971341917  0.4962242010792138  1.0000
  O   O1        1.0  0.9481665613804787  0.757624235999759  0.6310811842022961  1.0000
  O   O2        1.0  0.9097627209063788  0.694153987451284  0.956663930507801  1.0000
  O   O3        1.0  0.42712444891532936  0.554546722409893  0.7915380480744809  1.0000
  O   O4        1.0  0.06489998842000606  0.22797479388438327  0.9102999226595907  1.0000
  O   O5        1.0  0.3959777047352278  0.32313516929734254  0.2517274804749454  1.0000
  Ba  Ba4       1.0  0.36415282025500356  0.7637386730881596  0.004421352395310753  1.0000
  O   O6        1.0  0.24036655670692977  0.7896367315889522  0.29800960895718154  1.0000
  O   O7        1.0  0.8780899399564231  0.4633569610334083  0.41658600070204616  1.0000
  O   O8        1.0  0.35631184668868493  0.26045182750598284  0.5774288756510674  1.0000
