data_image64
_chemical_formula_structural       O2BaTiBaO2Ba2O3TiO
_chemical_formula_sum              "O8 Ba4 Ti2"
_cell_length_a       6.018679337962166
_cell_length_b       6.139921308085255
_cell_length_c       8.097078323364258
_cell_angle_alpha    89.98868488159393
_cell_angle_beta     89.98537906864169
_cell_angle_gamma    116.94446452305455

_space_group_name_H-M_alt    "P 1"
_space_group_IT_number       1

loop_
  _space_group_symop_operation_xyz
  'x, y, z'

loop_
  _atom_site_type_symbol
  _atom_site_label
  _atom_site_symmetry_multiplicity
  _atom_site_fract_x
  _atom_site_fract_y
  _atom_site_fract_z
  _atom_site_occupancy
  O   O1        1.0  0.8340279837559817  0.8438677045844748  0.06943870042245988  1.0000
  O   O2        1.0  0.027688051146401903  0.45238330975678154  0.06945599078759004  1.0000
  Ba  Ba1       1.0  0.40398949317086463  0.8877729292851879  0.06943490734331599  1.0000
  Ti  Ti1       1.0  0.7520720042224424  0.5113371175719109  0.06948182520294295  1.0000
  Ba  Ba2       1.0  0.07106863095347987  0.18481368465815268  0.3191706089900514  1.0000
  O   O3        1.0  0.710537361728336  0.012054542954578418  0.5694238048519163  1.0000
  O   O4        1.0  0.5665850867863856  0.34907358402595273  0.8905409116053344  1.0000
  Ba  Ba3       1.0  0.7406132933759603  0.49899245222966615  0.5694669397316887  1.0000
  Ba  Ba4       1.0  0.0709599550833672  0.1847336310630213  0.8198009564104717  1.0000
  O   O5        1.0  0.1956140133557513  0.8307583100654813  0.7487372666302188  1.0000
  O   O6        1.0  0.5666390141819518  0.34927685178541906  0.24856587957957718  1.0000
  O   O7        1.0  0.19582084932650773  0.8306811811350084  0.39001470954832024  1.0000
  Ti  Ti2       1.0  0.36620602648466927  0.8070659178780659  0.5694167767809907  1.0000
  O   O8        1.0  0.30351891988996216  0.4839615874600635  0.5694067202971113  1.0000
