data_image848
_chemical_formula_structural       Ba2OTi2Ba2OTiOTiO9
_chemical_formula_sum              "Ba4 O12 Ti4"
_cell_length_a       5.735778780311936
_cell_length_b       7.3958096454785665
_cell_length_c       7.585319995880127
_cell_angle_alpha    86.50669538434242
_cell_angle_beta     90.11667579681588
_cell_angle_gamma    90.05749903828897

_space_group_name_H-M_alt    "P 1"
_space_group_IT_number       1

loop_
  _space_group_symop_operation_xyz
  'x, y, z'

loop_
  _atom_site_type_symbol
  _atom_site_label
  _atom_site_symmetry_multiplicity
  _atom_site_fract_x
  _atom_site_fract_y
  _atom_site_fract_z
  _atom_site_occupancy
  Ba  Ba1       1.0  0.5256051227799556  0.6364552909113204  0.16801943600989974  1.0000
  Ba  Ba2       1.0  0.02470885141480976  0.27900861250183534  0.8307063656907405  1.0000
  O   O1        1.0  0.2749559536592393  0.9577772547696564  0.9993662256957818  1.0000
  Ti  Ti1       1.0  0.026179175614223397  0.3893094706182763  0.26520153630399884  1.0000
  Ti  Ti2       1.0  0.5242750392930903  0.5261941177030219  0.733526183370395  1.0000
  Ba  Ba3       1.0  0.02554471156601612  0.955042331752213  0.3307985624959022  1.0000
  Ba  Ba4       1.0  0.5245680279054095  0.9604490920046519  0.6679292453831769  1.0000
  O   O2        1.0  0.02715801910581826  0.29343190536196934  0.48439457938480424  1.0000
  Ti  Ti3       1.0  0.02487968668261248  0.8057777482207757  0.8949365445175473  1.0000
  O   O3        1.0  0.2805808198120675  0.2916444891494665  0.15097812276093375  1.0000
  Ti  Ti4       1.0  0.5253913161865237  0.10967454812248306  0.10381909899698115  1.0000
  O   O4        1.0  0.7749608855052855  0.9577683869061286  0.9993769323722966  1.0000
  O   O5        1.0  0.5239353452048919  0.6220980922205226  0.5143292990378743  1.0000
  O   O6        1.0  0.7708317537381701  0.29139770874138765  0.1513832729370161  1.0000
  O   O7        1.0  0.7794912154972343  0.6239518603707847  0.8476350250068158  1.0000
  O   O8        1.0  0.02424987263667551  0.9262884696725892  0.6853088988364909  1.0000
  O   O9        1.0  0.025704111373083427  0.6347770809401823  0.21321797189235472  1.0000
  O   O10       1.0  0.5247062538295567  0.28075227168977845  0.7853871443853115  1.0000
  O   O11       1.0  0.26974937185751624  0.6239979577893061  0.84753864521718  1.0000
  O   O12       1.0  0.525719754967127  0.9891725974196457  0.3134499283478969  1.0000
