data_image207
_chemical_formula_structural       Ba2OTiO2
_chemical_formula_sum              "Ba2 O3 Ti1"
_cell_length_a       4.031356388787392
_cell_length_b       3.981105389257883
_cell_length_c       7.377180576324464
_cell_angle_alpha    105.72896498276738
_cell_angle_beta     105.8235701639704
_cell_angle_gamma    90.00804127956465

_space_group_name_H-M_alt    "P 1"
_space_group_IT_number       1

loop_
  _space_group_symop_operation_xyz
  'x, y, z'

loop_
  _atom_site_type_symbol
  _atom_site_label
  _atom_site_symmetry_multiplicity
  _atom_site_fract_x
  _atom_site_fract_y
  _atom_site_fract_z
  _atom_site_occupancy
  Ba  Ba1       1.0  0.7984731725673065  0.35800955834819925  0.9177973938485752  1.0000
  Ba  Ba2       1.0  0.09906567907332764  0.6586109608743334  0.5188538671688329  1.0000
  O   O1        1.0  0.9487385058108163  0.008324984353703133  0.2183242027345571  1.0000
  Ti  Ti1       1.0  0.4487508333312344  0.008315452407588774  0.218328194114608  1.0000
  O   O2        1.0  0.3051130998989824  0.8648211025099045  0.9308834724989439  1.0000
  O   O3        1.0  0.5923724780270249  0.15183561540928714  0.5057893114655033  1.0000
