data_image594
_chemical_formula_structural       Ba2TiO4BaO
_chemical_formula_sum              "Ba3 Ti1 O5"
_cell_length_a       3.9767115681219063
_cell_length_b       6.187702875065165
_cell_length_c       7.324124813079834
_cell_angle_alpha    114.92309394880301
_cell_angle_beta     105.7706140285189
_cell_angle_gamma    89.95491734310949

_space_group_name_H-M_alt    "P 1"
_space_group_IT_number       1

loop_
  _space_group_symop_operation_xyz
  'x, y, z'

loop_
  _atom_site_type_symbol
  _atom_site_label
  _atom_site_symmetry_multiplicity
  _atom_site_fract_x
  _atom_site_fract_y
  _atom_site_fract_z
  _atom_site_occupancy
  Ba  Ba1       1.0  0.2795112865866732  0.41350185306918874  0.9215603711147746  1.0000
  Ba  Ba2       1.0  0.06884282430721851  0.7026278241606245  0.5001005967054469  1.0000
  Ti  Ti1       1.0  0.5684185440833776  0.20271978128625753  0.4999047778267487  1.0000
  O   O1        1.0  0.06897068588976082  0.2027176155430745  0.49994635347784844  1.0000
  O   O2        1.0  0.6844159903378922  0.5460259770434744  0.7313681367994482  1.0000
  O   O3        1.0  0.6848334839195068  0.09118549474284307  0.7317825012255207  1.0000
  O   O4        1.0  0.4525885207364807  0.3142983615979569  0.268027858300301  1.0000
  Ba  Ba3       1.0  0.8578570788988563  0.9917845560071863  0.07833809644084594  1.0000
  O   O5        1.0  0.45313060478468853  0.859424280466584  0.2683024462654274  1.0000
