data_image635
_chemical_formula_structural       Ba2TiO2BaOTiO3TiO4
_chemical_formula_sum              "Ba3 Ti3 O10"
_cell_length_a       3.8827197661480697
_cell_length_b       6.179743064733742
_cell_length_c       9.735535621643066
_cell_angle_alpha    102.70419477314549
_cell_angle_beta     89.76580215220876
_cell_angle_gamma    89.8353266397168

_space_group_name_H-M_alt    "P 1"
_space_group_IT_number       1

loop_
  _space_group_symop_operation_xyz
  'x, y, z'

loop_
  _atom_site_type_symbol
  _atom_site_label
  _atom_site_symmetry_multiplicity
  _atom_site_fract_x
  _atom_site_fract_y
  _atom_site_fract_z
  _atom_site_occupancy
  Ba  Ba1       1.0  0.39265643283684304  0.8331797776816346  0.16823833907496966  1.0000
  Ba  Ba2       1.0  0.39124997979825005  0.5094245469040066  0.5067177337693347  1.0000
  Ti  Ti1       1.0  0.8939859055419136  0.326653501760212  0.19646889264919695  1.0000
  O   O1        1.0  0.3895300131902888  0.9489161223444416  0.47288372221661934  1.0000
  O   O2        1.0  0.88938987375988  0.2653910925625086  0.6203674165162164  1.0000
  Ba  Ba3       1.0  0.38862837422055857  0.15398794912809713  0.8178652679160104  1.0000
  O   O3        1.0  0.8901146563851786  0.11655537454258846  0.31832215264432673  1.0000
  Ti  Ti2       1.0  0.891440543952399  0.7034533288463946  0.8165515914004967  1.0000
  O   O4        1.0  0.8939847901622843  0.5317169762047108  0.056821473688256234  1.0000
  O   O5        1.0  0.8881443762617794  0.8141958492538194  0.6441700691783284  1.0000
  O   O6        1.0  0.387891613974547  0.6547943265809171  0.7955723344716548  1.0000
  Ti  Ti3       1.0  0.891736590425261  0.0051561188352665585  0.49781975370090675  1.0000
  O   O7        1.0  0.8884131378612395  0.9445486978680089  0.9556038637084325  1.0000
  O   O8        1.0  0.8918651895769487  0.5859604542189725  0.3208257607596942  1.0000
  O   O9        1.0  0.8852667269854635  0.43532297723947316  0.9057802020608443  1.0000
  O   O10       1.0  0.3913861850683832  0.27330412997605164  0.15442872977978142  1.0000
