data_image259
_chemical_formula_structural       TiBaO3
_chemical_formula_sum              "Ti1 Ba1 O3"
_cell_length_a       3.963732737734398
_cell_length_b       4.143540688470743
_cell_length_c       4.143285751342773
_cell_angle_alpha    89.5101003911768
_cell_angle_beta     90.0055076372487
_cell_angle_gamma    90.01449616730633

_space_group_name_H-M_alt    "P 1"
_space_group_IT_number       1

loop_
  _space_group_symop_operation_xyz
  'x, y, z'

loop_
  _atom_site_type_symbol
  _atom_site_label
  _atom_site_symmetry_multiplicity
  _atom_site_fract_x
  _atom_site_fract_y
  _atom_site_fract_z
  _atom_site_occupancy
  Ti  Ti1       1.0  0.9569879575351189  0.49254941978531896  0.0969846280663649  1.0000
  Ba  Ba1       1.0  0.4572464755109987  0.010262504922782332  0.614482163614782  1.0000
  O   O1        1.0  0.4574738852899028  0.5364637819451741  0.14070646641433046  1.0000
  O   O2        1.0  0.9572998705456308  0.526512496308804  0.6515724684161165  1.0000
  O   O3        1.0  0.9573255812801184  0.04741176236836064  0.13087669402533209  1.0000
