data_image794
_chemical_formula_structural       TiOBaOTiO4
_chemical_formula_sum              "Ti2 O6 Ba1"
_cell_length_a       3.901147908126068
_cell_length_b       5.458127085333339
_cell_length_c       7.565849781036378
_cell_angle_alpha    69.6610022009629
_cell_angle_beta     75.11997021128353
_cell_angle_gamma    69.0837017195458

_space_group_name_H-M_alt    "P 1"
_space_group_IT_number       1

loop_
  _space_group_symop_operation_xyz
  'x, y, z'

loop_
  _atom_site_type_symbol
  _atom_site_label
  _atom_site_symmetry_multiplicity
  _atom_site_fract_x
  _atom_site_fract_y
  _atom_site_fract_z
  _atom_site_occupancy
  Ti  Ti1       1.0  0.10102906229391254  0.822749654553894  0.8653065694554495  1.0000
  O   O1        1.0  0.887578758290412  0.033027345357149684  0.08254372790383051  1.0000
  Ba  Ba1       1.0  0.89559313027806  0.6185183851834303  0.480291749217772  1.0000
  O   O2        1.0  0.6063151311651221  0.7691549291751664  0.9082672472754986  1.0000
  Ti  Ti2       1.0  0.690275258488783  0.4134402522263855  0.09596012841470232  1.0000
  O   O3        1.0  0.18489655800277024  0.46716943092870156  0.053111216511040914  1.0000
  O   O4        1.0  0.21480620597192512  0.8378652360579952  0.6225557943640314  1.0000
  O   O5        1.0  0.5766520988401579  0.39787887309554926  0.3387990306648765  1.0000
  O   O6        1.0  0.9039528435834685  0.2031976653460881  0.8787185818915668  1.0000
