data_image141
_chemical_formula_structural       BaOBaO3Ti
_chemical_formula_sum              "Ba2 O4 Ti1"
_cell_length_a       4.039817295629227
_cell_length_b       4.041698457516772
_cell_length_c       7.33763313293457
_cell_angle_alpha    105.94916824223168
_cell_angle_beta     105.9455568417792
_cell_angle_gamma    90.03100508254894

_space_group_name_H-M_alt    "P 1"
_space_group_IT_number       1

loop_
  _space_group_symop_operation_xyz
  'x, y, z'

loop_
  _atom_site_type_symbol
  _atom_site_label
  _atom_site_symmetry_multiplicity
  _atom_site_fract_x
  _atom_site_fract_y
  _atom_site_fract_z
  _atom_site_occupancy
  Ba  Ba1       1.0  0.2697527563112991  0.5168443031081034  0.7461459467078105  1.0000
  O   O1        1.0  0.9131112671330154  0.6601467462211523  0.03329949665715567  1.0000
  Ba  Ba2       1.0  0.5568785894673558  0.8036835017400047  0.320340217330775  1.0000
  O   O2        1.0  0.4131906449514792  0.16020924112231238  0.0334061769170373  1.0000
  O   O3        1.0  0.0608101241866344  0.3075847615466063  0.3282644789558665  1.0000
  O   O4        1.0  0.7657673302331378  0.012937435526596397  0.7384348077445618  1.0000
  Ti  Ti1       1.0  0.9135079750888465  0.16027052085788268  0.03332981786353642  1.0000
