data_image331
_chemical_formula_structural       O2TiOBaO
_chemical_formula_sum              "O4 Ti1 Ba1"
_cell_length_a       3.29101810203436
_cell_length_b       5.521701660764383
_cell_length_c       5.533994197845459
_cell_angle_alpha    91.28995883012148
_cell_angle_beta     89.98638993804447
_cell_angle_gamma    89.96135046571732

_space_group_name_H-M_alt    "P 1"
_space_group_IT_number       1

loop_
  _space_group_symop_operation_xyz
  'x, y, z'

loop_
  _atom_site_type_symbol
  _atom_site_label
  _atom_site_symmetry_multiplicity
  _atom_site_fract_x
  _atom_site_fract_y
  _atom_site_fract_z
  _atom_site_occupancy
  O   O1        1.0  0.8758496722417498  0.9972391277839375  0.6309679042803913  1.0000
  O   O2        1.0  0.8762076606987604  0.4783915973939449  0.1111410627953942  1.0000
  Ti  Ti1       1.0  0.8800625085525994  0.23787352019744473  0.870985370728677  1.0000
  O   O3        1.0  0.3765293870414725  0.08526398346765621  0.023276191700536998  1.0000
  Ba  Ba1       1.0  0.3762341790809698  0.7379990933122244  0.37084576835805405  1.0000
  O   O4        1.0  0.3761706959757099  0.39060439647921646  0.7186493046659091  1.0000
