data_image199
_chemical_formula_structural       BaTiO2
_chemical_formula_sum              "Ba1 Ti1 O2"
_cell_length_a       3.3041025481079105
_cell_length_b       3.3055188156376323
_cell_length_c       6.303637027740479
_cell_angle_alpha    74.82552053979546
_cell_angle_beta     74.82121141811686
_cell_angle_gamma    60.0304025467951

_space_group_name_H-M_alt    "P 1"
_space_group_IT_number       1

loop_
  _space_group_symop_operation_xyz
  'x, y, z'

loop_
  _atom_site_type_symbol
  _atom_site_label
  _atom_site_symmetry_multiplicity
  _atom_site_fract_x
  _atom_site_fract_y
  _atom_site_fract_z
  _atom_site_occupancy
  Ba  Ba1       1.0  0.1560882085090652  0.747894877930893  0.0903057032929614  1.0000
  Ti  Ti1       1.0  0.6558654353265752  0.24770579556108024  0.5906421772019989  1.0000
  O   O1        1.0  0.3777829059443047  0.9696447823707769  0.42488212647684126  1.0000
  O   O2        1.0  0.9341769913430898  0.5259641555661323  0.7558891553479797  1.0000
