data_image121
_chemical_formula_structural       Ti2BaOBaOBaOBaO3
_chemical_formula_sum              "Ti2 Ba4 O6"
_cell_length_a       3.46422520299834
_cell_length_b       6.287401051286943
_cell_length_c       9.872732162475586
_cell_angle_alpha    89.93053948562785
_cell_angle_beta     79.97251322793416
_cell_angle_gamma    89.94557272802514

_space_group_name_H-M_alt    "P 1"
_space_group_IT_number       1

loop_
  _space_group_symop_operation_xyz
  'x, y, z'

loop_
  _atom_site_type_symbol
  _atom_site_label
  _atom_site_symmetry_multiplicity
  _atom_site_fract_x
  _atom_site_fract_y
  _atom_site_fract_z
  _atom_site_occupancy
  Ti  Ti1       1.0  0.8282249106522556  0.4776153680232667  0.738317055037933  1.0000
  Ti  Ti2       1.0  0.5497562117967103  0.9772615790368709  0.3025909278444328  1.0000
  Ba  Ba1       1.0  0.0027254527506378285  0.47733960301186934  0.3974333336452679  1.0000
  O   O1        1.0  0.6098394150522007  0.2140332091448607  0.1812852841459527  1.0000
  Ba  Ba2       1.0  0.17785731730559237  0.4774642263884085  0.04574200846276931  1.0000
  O   O2        1.0  0.7682749575946523  0.7144293210951564  0.8594533772415767  1.0000
  Ba  Ba3       1.0  0.37515846944066455  0.9774586962738161  0.6433803687010184  1.0000
  O   O3        1.0  0.37318128737267686  0.4777396820740884  0.648135836002654  1.0000
  Ba  Ba4       1.0  0.20004631490269187  0.9774931952639928  0.9950991910211011  1.0000
  O   O4        1.0  0.6096476929284026  0.7405394942361664  0.18140286659145322  1.0000
  O   O5        1.0  0.7680318856316598  0.24093274837787748  0.8596777396675634  1.0000
  O   O6        1.0  0.0047114713083034054  0.9771405513584583  0.3928998910449903  1.0000
