data_image276
_chemical_formula_structural       Ba3Ti2OTiO3TiO
_chemical_formula_sum              "Ba3 Ti4 O5"
_cell_length_a       3.924778108537564
_cell_length_b       3.9272646163862244
_cell_length_c       14.889522552490236
_cell_angle_alpha    97.49939329135333
_cell_angle_beta     97.46558396009463
_cell_angle_gamma    90.00461281107481

_space_group_name_H-M_alt    "P 1"
_space_group_IT_number       1

loop_
  _space_group_symop_operation_xyz
  'x, y, z'

loop_
  _atom_site_type_symbol
  _atom_site_label
  _atom_site_symmetry_multiplicity
  _atom_site_fract_x
  _atom_site_fract_y
  _atom_site_fract_z
  _atom_site_occupancy
  Ba  Ba1       1.0  0.09842891538447762  0.1609637790599569  0.7979412979921947  1.0000
  Ba  Ba2       1.0  0.24111415448622137  0.3040146955035567  0.08541045906339452  1.0000
  Ba  Ba3       1.0  0.9555550300272405  0.017842829701390724  0.5106698754101208  1.0000
  Ti  Ti1       1.0  0.8355236794513743  0.8983439273941757  0.27348056719829633  1.0000
  Ti  Ti2       1.0  0.36022263990857517  0.42303792991227224  0.3229613948354525  1.0000
  O   O1        1.0  0.5984564109664506  0.661002886449591  0.7979958597177109  1.0000
  Ti  Ti3       1.0  0.665418250276714  0.7281680337747711  0.9328626043835578  1.0000
  O   O2        1.0  0.024372434235632658  0.5866763270757259  0.6487514320628048  1.0000
  O   O3        1.0  0.17250820072303794  0.7352628270105387  0.9472124692137556  1.0000
  O   O4        1.0  0.672487263487067  0.2351677721473042  0.9470804836212591  1.0000
  Ti  Ti4       1.0  0.5314561443275143  0.593824071737373  0.6630863309617447  1.0000
  O   O5        1.0  0.5243267476140483  0.08676437603516036  0.6488680598373203  1.0000
