data_image938
_chemical_formula_structural       OBa2TiOTiO2Ti2OBaO2TiO5
_chemical_formula_sum              "O12 Ba3 Ti5"
_cell_length_a       4.181205488106692
_cell_length_b       8.016921160430096
_cell_length_c       8.019087791442871
_cell_angle_alpha    90.00979016547929
_cell_angle_beta     89.83032010699127
_cell_angle_gamma    90.32178638095512

_space_group_name_H-M_alt    "P 1"
_space_group_IT_number       1

loop_
  _space_group_symop_operation_xyz
  'x, y, z'

loop_
  _atom_site_type_symbol
  _atom_site_label
  _atom_site_symmetry_multiplicity
  _atom_site_fract_x
  _atom_site_fract_y
  _atom_site_fract_z
  _atom_site_occupancy
  O   O1        1.0  0.5894955633078955  0.8815109066832737  0.19066155914798427  1.0000
  Ba  Ba1       1.0  0.6247086494961416  0.6360399215840654  0.445945499097439  1.0000
  Ba  Ba2       1.0  0.6247685370993911  0.1369020595590848  0.9465295289900285  1.0000
  Ti  Ti1       1.0  0.15540852094757068  0.8806965847465853  0.7020809359393848  1.0000
  O   O2        1.0  0.5888426756230781  0.39253527066585003  0.7017272675006017  1.0000
  Ti  Ti2       1.0  0.15775302729520213  0.8814180230148941  0.19109871391388014  1.0000
  O   O3        1.0  0.09825870089098926  0.8952256919237426  0.4464732725403579  1.0000
  O   O4        1.0  0.10640528165514315  0.37731151876614744  0.44673012253573197  1.0000
  Ti  Ti3       1.0  0.15699759160815224  0.3918079037788415  0.7016907054218836  1.0000
  Ti  Ti4       1.0  0.027419828580079943  0.1358111150928679  0.4469806420643368  1.0000
  O   O5        1.0  0.11027699037675318  0.8902719400917212  0.9463024162051888  1.0000
  Ba  Ba3       1.0  0.627719202106509  0.6367366703567701  0.9463152050507637  1.0000
  O   O6        1.0  0.09815119097650842  0.13641036762192657  0.6876296802991959  1.0000
  O   O7        1.0  0.11662840120905218  0.6372227838744823  0.19979344260839998  1.0000
  Ti  Ti5       1.0  0.07672848295284351  0.3922965202479559  0.19052977091829212  1.0000
  O   O8        1.0  0.10698887136537504  0.1362711213136718  0.20576579819262905  1.0000
  O   O9        1.0  0.10971795988926866  0.6366345681106327  0.6928843465870067  1.0000
  O   O10       1.0  0.11631607703215072  0.3830226676647832  0.9457412838160804  1.0000
  O   O11       1.0  0.5867845163613521  0.8814378127186608  0.7013968697067791  1.0000
  O   O12       1.0  0.6404800892379423  0.3934827143495222  0.1891631514282177  1.0000
