data_image663
_chemical_formula_structural       BaOTiBaO2TiO2TiO2
_chemical_formula_sum              "Ba2 O7 Ti3"
_cell_length_a       3.9643284784795876
_cell_length_b       5.95941241405338
_cell_length_c       8.439247131347656
_cell_angle_alpha    110.62912739303303
_cell_angle_beta     103.51814249881238
_cell_angle_gamma    90.03975422960033

_space_group_name_H-M_alt    "P 1"
_space_group_IT_number       1

loop_
  _space_group_symop_operation_xyz
  'x, y, z'

loop_
  _atom_site_type_symbol
  _atom_site_label
  _atom_site_symmetry_multiplicity
  _atom_site_fract_x
  _atom_site_fract_y
  _atom_site_fract_z
  _atom_site_occupancy
  Ba  Ba1       1.0  0.750673957945917  0.6458489395602817  0.7296471863012501  1.0000
  O   O1        1.0  0.38527029654376116  0.5239955513549861  0.9984697477234156  1.0000
  Ti  Ti1       1.0  0.2872369817539664  0.18148497940755565  0.8023908343832785  1.0000
  Ba  Ba2       1.0  0.963969649938078  0.3581544113843334  0.15654077505862724  1.0000
  O   O2        1.0  0.3845544705789311  0.03096541663423081  0.9972793647292194  1.0000
  O   O3        1.0  0.18389279621582333  0.8404050217573977  0.596008101617108  1.0000
  Ti  Ti2       1.0  0.45497858970063637  0.8484912103549525  0.13811871383501007  1.0000
  O   O4        1.0  0.18591363625031748  0.3205404080725344  0.5997106742337102  1.0000
  O   O5        1.0  0.9741941220637657  0.8652781587887493  0.17656269606713693  1.0000
  Ti  Ti3       1.0  0.10855121392017124  0.005753361166610517  0.44552405600014217  1.0000
  O   O6        1.0  0.7931158685756817  0.18621267707541195  0.8142348424003107  1.0000
  O   O7        1.0  0.5814206890790794  0.9844414255452144  0.39115647520535685  1.0000
