data_image188
_chemical_formula_structural       Ba2O2BaTiO4TiO3TiBaTiO3
_chemical_formula_sum              "Ba4 O12 Ti4"
_cell_length_a       3.771665279626488
_cell_length_b       6.138313067436293
_cell_length_c       13.70898723602295
_cell_angle_alpha    95.8304431248928
_cell_angle_beta     89.94321630589074
_cell_angle_gamma    89.98347344677873

_space_group_name_H-M_alt    "P 1"
_space_group_IT_number       1

loop_
  _space_group_symop_operation_xyz
  'x, y, z'

loop_
  _atom_site_type_symbol
  _atom_site_label
  _atom_site_symmetry_multiplicity
  _atom_site_fract_x
  _atom_site_fract_y
  _atom_site_fract_z
  _atom_site_occupancy
  Ba  Ba1       1.0  0.7401788872491961  0.8799187648159073  0.258034637198388  1.0000
  Ba  Ba2       1.0  0.739598194213454  0.3817530723485634  0.46771828968020046  1.0000
  O   O1        1.0  0.24120680169081377  0.5635614799914093  0.9395039794673969  1.0000
  O   O2        1.0  0.7407759470841538  0.8300953145487681  0.05806744569463326  1.0000
  Ba  Ba3       1.0  0.7413317722434787  0.7791592856489082  0.8254721694566727  1.0000
  Ti  Ti1       1.0  0.24109023315942116  0.8485016825981212  0.5881702971263041  1.0000
  O   O3        1.0  0.240612235493785  0.6179300182676192  0.1609526837679014  1.0000
  O   O4        1.0  0.24219912400812704  0.003269881773302563  0.7318640385019788  1.0000
  O   O5        1.0  0.7402354384917336  0.44549484191224625  0.2758423755018012  1.0000
  O   O6        1.0  0.24021250536466304  0.19811118065861383  0.35278345788314625  1.0000
  Ti  Ti2       1.0  0.24024751223877952  0.3683594864095887  0.24515071579726946  1.0000
  O   O7        1.0  0.23898679540876422  0.16560784033012915  0.5713710564129748  1.0000
  O   O8        1.0  0.7424147988815567  0.34343703582609997  0.7384001045634351  1.0000
  O   O9        1.0  0.24049984435377234  0.1404716825941873  0.15244350089031264  1.0000
  Ti  Ti3       1.0  0.2408229520678771  0.7985002007535112  0.033230894432235085  1.0000
  Ba  Ba4       1.0  0.7408404575638  0.30121772561684357  0.023590250789836117  1.0000
  Ti  Ti4       1.0  0.23913426445452232  0.28691757431946924  0.7004632099421993  1.0000
  O   O10       1.0  0.2432775216931244  0.5963826112941962  0.6509436007764096  1.0000
  O   O11       1.0  0.2396036286336392  0.7306276590439428  0.4653113008235031  1.0000
  O   O12       1.0  0.24109537540124798  0.009883990645613114  0.9445855322624506  1.0000
