data_image107
_chemical_formula_structural       BaOTiO
_chemical_formula_sum              "Ba1 O2 Ti1"
_cell_length_a       3.2544807890171334
_cell_length_b       3.256910621447029
_cell_length_c       6.4677815437316895
_cell_angle_alpha    75.46750494380325
_cell_angle_beta     75.47977768788553
_cell_angle_gamma    60.070201780537694

_space_group_name_H-M_alt    "P 1"
_space_group_IT_number       1

loop_
  _space_group_symop_operation_xyz
  'x, y, z'

loop_
  _atom_site_type_symbol
  _atom_site_label
  _atom_site_symmetry_multiplicity
  _atom_site_fract_x
  _atom_site_fract_y
  _atom_site_fract_z
  _atom_site_occupancy
  Ba  Ba1       1.0  0.07010134172465629  0.7239439371263974  0.885446529491343  1.0000
  O   O1        1.0  0.28920242423046494  0.9430820301694731  0.22776988446340668  1.0000
  Ti  Ti1       1.0  0.9000027393613591  0.5537381104974756  0.3956341086858308  1.0000
  O   O2        1.0  0.5125479225542888  0.16622708742013112  0.5581949136915771  1.0000
