data_image669
_chemical_formula_structural       Ba2OTiO3TiO2
_chemical_formula_sum              "Ba2 O6 Ti2"
_cell_length_a       5.506783218876915
_cell_length_b       5.502341770770411
_cell_length_c       4.844473838806152
_cell_angle_alpha    89.91383283794349
_cell_angle_beta     89.90630596859411
_cell_angle_gamma    89.94812721800048

_space_group_name_H-M_alt    "P 1"
_space_group_IT_number       1

loop_
  _space_group_symop_operation_xyz
  'x, y, z'

loop_
  _atom_site_type_symbol
  _atom_site_label
  _atom_site_symmetry_multiplicity
  _atom_site_fract_x
  _atom_site_fract_y
  _atom_site_fract_z
  _atom_site_occupancy
  Ba  Ba1       1.0  0.4979535549673434  0.22376420344726497  0.5218610431781214  1.0000
  Ba  Ba2       1.0  0.9979778812476868  0.7237844589479641  0.5201714047143459  1.0000
  O   O1        1.0  0.7483506593757971  0.47416480682600654  0.11232681669753082  1.0000
  Ti  Ti1       1.0  0.9979282363002582  0.22377404450123847  0.028531991238806995  1.0000
  O   O2        1.0  0.9982017520747105  0.22396613020649295  0.6587940958924732  1.0000
  O   O3        1.0  0.24838668322477814  0.47402266389391223  0.11185187037889867  1.0000
  O   O4        1.0  0.7482325882583801  0.9741860932514749  0.11209125890227566  1.0000
  Ti  Ti2       1.0  0.4979455162817477  0.7237791905679374  0.02848593466226609  1.0000
  O   O5        1.0  0.4982503382696992  0.7240325100302796  0.6587325508101333  1.0000
  O   O6        1.0  0.2484426038155052  0.9742175144529285  0.11261729612715828  1.0000
