data_image821
_chemical_formula_structural       BaTiOTiBaO5
_chemical_formula_sum              "Ba2 Ti2 O6"
_cell_length_a       5.4568629155704285
_cell_length_b       5.454719230354085
_cell_length_c       6.4812140464782715
_cell_angle_alpha    65.1664039667824
_cell_angle_beta     65.17043445818533
_cell_angle_gamma    59.986532690988554

_space_group_name_H-M_alt    "P 1"
_space_group_IT_number       1

loop_
  _space_group_symop_operation_xyz
  'x, y, z'

loop_
  _atom_site_type_symbol
  _atom_site_label
  _atom_site_symmetry_multiplicity
  _atom_site_fract_x
  _atom_site_fract_y
  _atom_site_fract_z
  _atom_site_occupancy
  Ba  Ba1       1.0  0.5834409452117492  0.08056544213692828  0.34214148273568534  1.0000
  Ti  Ti1       1.0  0.12053420056333052  0.6178275253208552  0.7305417568864719  1.0000
  O   O1        1.0  0.03713632609462573  0.025174572488281654  0.4897422385172692  1.0000
  Ti  Ti2       1.0  0.8039031659291375  0.3011736517372348  0.6805849716041669  1.0000
  Ba  Ba2       1.0  0.34106375732611993  0.8384596976347768  0.06899819587646482  1.0000
  O   O2        1.0  0.8871913112296735  0.893801404778819  0.9213983564988693  1.0000
  O   O3        1.0  0.5279606938069908  0.5346867485985614  0.48971764438652465  1.0000
  O   O4        1.0  0.8871809029165303  0.3846422450660874  0.9213723681843644  1.0000
  O   O5        1.0  0.3965047265691235  0.3844251699567027  0.9213611067153118  1.0000
  O   O6        1.0  0.03736233837193494  0.5342608828691899  0.48976320618737695  1.0000
