data_image921
_chemical_formula_structural       Ti2BaOTiBaO8BaO
_chemical_formula_sum              "Ti3 Ba3 O10"
_cell_length_a       3.976544542839637
_cell_length_b       3.94771864552865
_cell_length_c       14.96456527709961
_cell_angle_alpha    90.00647752373726
_cell_angle_beta     97.54565378936054
_cell_angle_gamma    89.94016321636393

_space_group_name_H-M_alt    "P 1"
_space_group_IT_number       1

loop_
  _space_group_symop_operation_xyz
  'x, y, z'

loop_
  _atom_site_type_symbol
  _atom_site_label
  _atom_site_symmetry_multiplicity
  _atom_site_fract_x
  _atom_site_fract_y
  _atom_site_fract_z
  _atom_site_occupancy
  Ti  Ti1       1.0  0.16258553643508558  0.4283772391835901  0.6512664026756783  1.0000
  Ti  Ti2       1.0  0.8611369123041568  0.42730805151241025  0.04588433289334026  1.0000
  Ba  Ba1       1.0  0.5829152910842249  0.9283169861579087  0.491077972582856  1.0000
  O   O1        1.0  0.005540856910047809  0.9279166990400872  0.3356907783538976  1.0000
  Ti  Ti3       1.0  0.008669903225393304  0.42794525004595285  0.34187087122510723  1.0000
  Ba  Ba2       1.0  0.43514004231284026  0.9275589203752689  0.19429624156882994  1.0000
  O   O2        1.0  0.8011526870008417  0.4272057725276139  0.924837120415441  1.0000
  O   O3        1.0  0.22033162338994436  0.4280786148551465  0.7671613746654485  1.0000
  O   O4        1.0  0.14888699418185594  0.9285106477169595  0.6240039298216118  1.0000
  O   O5        1.0  0.3677421139431766  0.42729781956053503  0.05849102298983608  1.0000
  O   O6        1.0  0.5056840029156049  0.4279164113745851  0.3359798897606998  1.0000
  O   O7        1.0  0.9388448828860158  0.42761556474589674  0.20164533085272432  1.0000
  O   O8        1.0  0.07054493990848944  0.4281313042470754  0.4665355851030021  1.0000
  O   O9        1.0  0.867147628577068  0.9273101501361071  0.05707870583374453  1.0000
  Ba  Ba3       1.0  0.28525848013528066  0.9274306771387256  0.892234003639052  1.0000
  O   O10       1.0  0.6476192567285727  0.42868083315715905  0.6216220651171266  1.0000
