data_image24
_chemical_formula_structural       TiBaO2
_chemical_formula_sum              "Ti1 Ba1 O2"
_cell_length_a       3.31434300783213
_cell_length_b       3.314231393478635
_cell_length_c       6.282316207885742
_cell_angle_alpha    74.73544434106746
_cell_angle_beta     74.73620161425139
_cell_angle_gamma    60.056952552744924

_space_group_name_H-M_alt    "P 1"
_space_group_IT_number       1

loop_
  _space_group_symop_operation_xyz
  'x, y, z'

loop_
  _atom_site_type_symbol
  _atom_site_label
  _atom_site_symmetry_multiplicity
  _atom_site_fract_x
  _atom_site_fract_y
  _atom_site_fract_z
  _atom_site_occupancy
  Ti  Ti1       1.0  0.26267762835073544  0.6938834986522977  0.850755125913842  1.0000
  Ba  Ba1       1.0  0.7627695413089938  0.19397679631150935  0.350722000615867  1.0000
  O   O1        1.0  0.5409247509424897  0.9721272937240155  0.016094832499534265  1.0000
  O   O2        1.0  0.9844887536352979  0.4157261340690926  0.6853314811127675  1.0000
