data_image574
_chemical_formula_structural       BaTi2OBaO2BaO3
_chemical_formula_sum              "Ba3 Ti2 O6"
_cell_length_a       4.026034906574756
_cell_length_b       4.0267973216105535
_cell_length_c       11.271574020385742
_cell_angle_alpha    100.22464562465927
_cell_angle_beta     100.24797710022582
_cell_angle_gamma    90.00498188515668

_space_group_name_H-M_alt    "P 1"
_space_group_IT_number       1

loop_
  _space_group_symop_operation_xyz
  'x, y, z'

loop_
  _atom_site_type_symbol
  _atom_site_label
  _atom_site_symmetry_multiplicity
  _atom_site_fract_x
  _atom_site_fract_y
  _atom_site_fract_z
  _atom_site_occupancy
  Ba  Ba1       1.0  0.3226833557826117  0.4047364451570027  0.8513086187750905  1.0000
  Ti  Ti1       1.0  0.10658341280361408  0.18872431135543435  0.4196212057445074  1.0000
  Ti  Ti2       1.0  0.9051186841665697  0.9871039488388141  0.016452299054260103  1.0000
  O   O1        1.0  0.5974446596214436  0.17950313363254203  0.40123057921516514  1.0000
  Ba  Ba2       1.0  0.5058400592044295  0.5879058800655725  0.21803291895905244  1.0000
  O   O2        1.0  0.41425854642339965  0.9963201562939403  0.034840591364775735  1.0000
  O   O3        1.0  0.19507042044497905  0.277121514423632  0.5967634157372604  1.0000
  Ba  Ba3       1.0  0.6890379442315004  0.7710969464748268  0.5847630840774246  1.0000
  O   O4        1.0  0.9143324460591168  0.4961821511031831  0.03481505169092485  1.0000
  O   O5        1.0  0.09736767086770849  0.6796394608564834  0.4012558705466359  1.0000
  O   O6        1.0  0.8166632085869447  0.8987384228520908  0.8393122953347874  1.0000
