data_image770
_chemical_formula_structural       OBaOBaTi2O4
_chemical_formula_sum              "O6 Ba2 Ti2"
_cell_length_a       5.730406872979449
_cell_length_b       5.731344023688225
_cell_length_c       5.73049783706665
_cell_angle_alpha    60.008505449600435
_cell_angle_beta     59.99827473621072
_cell_angle_gamma    59.988998464951884

_space_group_name_H-M_alt    "P 1"
_space_group_IT_number       1

loop_
  _space_group_symop_operation_xyz
  'x, y, z'

loop_
  _atom_site_type_symbol
  _atom_site_label
  _atom_site_symmetry_multiplicity
  _atom_site_fract_x
  _atom_site_fract_y
  _atom_site_fract_z
  _atom_site_occupancy
  O   O1        1.0  0.4948178081609399  0.7791782526614598  0.7599525924421511  1.0000
  Ba  Ba1       1.0  0.9945706637736614  0.2791952886612938  0.7599310635810487  1.0000
  O   O2        1.0  0.49467757698020814  0.27929823511142154  0.7601372359087911  1.0000
  Ba  Ba2       1.0  0.4946880260992599  0.7794096568709094  0.25998301696562104  1.0000
  Ti  Ti1       1.0  0.24469850273770954  0.5293836614050117  0.009822685949566859  1.0000
  Ti  Ti2       1.0  0.7446685223416769  0.029448654003947337  0.5096858701928733  1.0000
  O   O3        1.0  0.9945877107303351  0.27901936818983514  0.2601427538706052  1.0000
  O   O4        1.0  0.9946439856715343  0.7792129277545244  0.7600658907085321  1.0000
  O   O5        1.0  0.9948278995658669  0.7789673380564546  0.2599977142448975  1.0000
  O   O6        1.0  0.49448864606993315  0.2793768730988885  0.26006186995162095  1.0000
