data_image875
_chemical_formula_structural       Ba2Ti2O6
_chemical_formula_sum              "Ba2 Ti2 O6"
_cell_length_a       4.251979625169308
_cell_length_b       5.63805884932833
_cell_length_c       5.633318901062013
_cell_angle_alpha    90.15522539481655
_cell_angle_beta     90.05803862377968
_cell_angle_gamma    90.10313836498473

_space_group_name_H-M_alt    "P 1"
_space_group_IT_number       1

loop_
  _space_group_symop_operation_xyz
  'x, y, z'

loop_
  _atom_site_type_symbol
  _atom_site_label
  _atom_site_symmetry_multiplicity
  _atom_site_fract_x
  _atom_site_fract_y
  _atom_site_fract_z
  _atom_site_occupancy
  Ba  Ba1       1.0  0.14404922306309526  0.1302798355075067  0.21889723986900372  1.0000
  Ba  Ba2       1.0  0.14404907414874527  0.6303107178094719  0.7191189935317882  1.0000
  Ti  Ti1       1.0  0.6631609445736949  0.629526672966589  0.21892254842161066  1.0000
  Ti  Ti2       1.0  0.6631873757049178  0.1295999634811408  0.7187988808442384  1.0000
  O   O1        1.0  0.6132274404813075  0.3809839951429225  0.9692846567255649  1.0000
  O   O2        1.0  0.6141786679619902  0.38105988794931445  0.46907596618242065  1.0000
  O   O3        1.0  0.09070748205181832  0.6305679396979033  0.21917567259779944  1.0000
  O   O4        1.0  0.09080802238551322  0.130811120879425  0.7190639116009272  1.0000
  O   O5        1.0  0.6133296976664045  0.8810894682933385  0.46924185963717335  1.0000
  O   O6        1.0  0.6140940536160763  0.8809408885409578  0.9689785429935937  1.0000
