data_image766
_chemical_formula_structural       Ba3OBaO2Ba3OTi3O6
_chemical_formula_sum              "Ba7 O10 Ti3"
_cell_length_a       7.674685433030308
_cell_length_b       7.184808487091772
_cell_length_c       7.371742248535155
_cell_angle_alpha    83.78799307321943
_cell_angle_beta     75.26003001530292
_cell_angle_gamma    74.8430457490552

_space_group_name_H-M_alt    "P 1"
_space_group_IT_number       1

loop_
  _space_group_symop_operation_xyz
  'x, y, z'

loop_
  _atom_site_type_symbol
  _atom_site_label
  _atom_site_symmetry_multiplicity
  _atom_site_fract_x
  _atom_site_fract_y
  _atom_site_fract_z
  _atom_site_occupancy
  Ba  Ba1       1.0  0.8254315944351492  0.8533788949444043  0.08806320469116219  1.0000
  Ba  Ba2       1.0  0.40509668221017453  0.2983296834314421  0.2906890396970071  1.0000
  Ba  Ba3       1.0  0.7315419749632993  0.43192686656063334  0.8270383818662866  1.0000
  O   O1        1.0  0.40887505226448223  0.9420031537742021  0.4313759166083116  1.0000
  Ba  Ba4       1.0  0.3159013058029211  0.8708994950779371  0.0926117316567378  1.0000
  O   O2        1.0  0.39424881217499413  0.7260587407593093  0.750847073786985  1.0000
  O   O3        1.0  0.12227711190686996  0.5936833108779338  0.21140285376505374  1.0000
  Ba  Ba5       1.0  0.6450279447030676  0.9918595207038214  0.6448100670095149  1.0000
  Ba  Ba6       1.0  0.24525339037471997  0.40904532739453486  0.8357254003465131  1.0000
  Ba  Ba7       1.0  0.8978527526893054  0.3265792740356529  0.3036259962129721  1.0000
  O   O4        1.0  0.5984302735187366  0.5915592623694639  0.19278560658943653  1.0000
  Ti  Ti1       1.0  0.03630676668010616  0.6817439073910074  0.47197438465744845  1.0000
  Ti  Ti2       1.0  0.5064324788531884  0.6535681635314755  0.474879413449883  1.0000
  Ti  Ti3       1.0  0.17759709312493202  0.9134443107050547  0.6382761548454297  1.0000
  O   O5        1.0  0.023596982720616503  0.9613818614522925  0.43364151988965427  1.0000
  O   O6        1.0  0.5642689325818345  0.3687756462132482  0.5525136977273626  1.0000
  O   O7        1.0  0.9837468467793511  0.7263561535790531  0.74645963119181  1.0000
  O   O8        1.0  0.5491649699456436  0.140597217894188  0.9724059706930197  1.0000
  O   O9        1.0  0.07174905364065155  0.08255938409576839  0.8455379613222501  1.0000
  O   O10       1.0  0.7793259589987838  0.6554602462670444  0.48455336645806923  1.0000
