data_image101
_chemical_formula_structural       Ba2TiO2TiOBaO4
_chemical_formula_sum              "Ba3 Ti2 O7"
_cell_length_a       4.076534129547938
_cell_length_b       4.07509144770798
_cell_length_c       11.084628105163574
_cell_angle_alpha    100.56327963027272
_cell_angle_beta     100.58997967493973
_cell_angle_gamma    89.8649216964953

_space_group_name_H-M_alt    "P 1"
_space_group_IT_number       1

loop_
  _space_group_symop_operation_xyz
  'x, y, z'

loop_
  _atom_site_type_symbol
  _atom_site_label
  _atom_site_symmetry_multiplicity
  _atom_site_fract_x
  _atom_site_fract_y
  _atom_site_fract_z
  _atom_site_occupancy
  Ba  Ba1       1.0  0.31524896263558044  0.8474325030694603  0.1784940704052487  1.0000
  Ba  Ba2       1.0  0.9492891638019825  0.4815282893008279  0.44639053704558035  1.0000
  Ti  Ti1       1.0  0.5515175602498834  0.08358077008146944  0.6229736432706282  1.0000
  O   O1        1.0  0.5262819425621249  0.5471754739323694  0.6236421909077664  1.0000
  O   O2        1.0  0.4315809350971384  0.9640358649037758  0.44040533865142517  1.0000
  Ti  Ti2       1.0  0.7410345261099227  0.27321385352855704  0.001917410515575607  1.0000
  O   O3        1.0  0.6153537905565831  0.147715489275984  0.8124513601792186  1.0000
  Ba  Ba3       1.0  0.1329323202374664  0.6651205163016409  0.812454638268316  1.0000
  O   O4        1.0  0.20356104529053554  0.24752608485054134  0.0012444245300129743  1.0000
  O   O5        1.0  0.8032922571348353  0.3354853853115462  0.18451158262052864  1.0000
  O   O6        1.0  0.7151119642920111  0.7359453013326557  0.0012305663003451177  1.0000
  O   O7        1.0  0.014755017968380905  0.05855047632385396  0.6236401431752362  1.0000
