data_image174
_chemical_formula_structural       BaOBaOTiO3Ba
_chemical_formula_sum              "Ba3 O5 Ti1"
_cell_length_a       3.9774370013002716
_cell_length_b       6.1933869563628186
_cell_length_c       7.326631069183349
_cell_angle_alpha    114.91692005609191
_cell_angle_beta     105.68243738173376
_cell_angle_gamma    89.99409495666475

_space_group_name_H-M_alt    "P 1"
_space_group_IT_number       1

loop_
  _space_group_symop_operation_xyz
  'x, y, z'

loop_
  _atom_site_type_symbol
  _atom_site_label
  _atom_site_symmetry_multiplicity
  _atom_site_fract_x
  _atom_site_fract_y
  _atom_site_fract_z
  _atom_site_occupancy
  Ba  Ba1       1.0  0.31906602261318373  0.06426761112308502  0.8423256279902264  1.0000
  O   O1        1.0  0.49276585004360524  0.9649646393191523  0.1891544614994669  1.0000
  Ba  Ba2       1.0  0.10842927386644571  0.35349519681812863  0.42077839223033847  1.0000
  O   O2        1.0  0.4926615558128497  0.5103314407819417  0.1893798803786865  1.0000
  Ti  Ti1       1.0  0.60890607620555  0.8535249782220301  0.4209454775021586  1.0000
  O   O3        1.0  0.7240086733097694  0.1966202934795746  0.6523778844969156  1.0000
  O   O4        1.0  0.10818808721589064  0.8534493942525642  0.42089328960172423  1.0000
  O   O5        1.0  0.7242173362358393  0.7420783487782397  0.6527251675967229  1.0000
  Ba  Ba3       1.0  0.8980649073748987  0.642720162282771  0.9995173903346888  1.0000
