data_image398
_chemical_formula_structural       Ba3TiOBa3O8BaTiO2
_chemical_formula_sum              "Ba7 Ti2 O11"
_cell_length_a       6.552243854553679
_cell_length_b       6.66327430752314
_cell_length_c       10.34228992462158
_cell_angle_alpha    75.29224745126665
_cell_angle_beta     80.6866433978536
_cell_angle_gamma    77.61566106755963

_space_group_name_H-M_alt    "P 1"
_space_group_IT_number       1

loop_
  _space_group_symop_operation_xyz
  'x, y, z'

loop_
  _atom_site_type_symbol
  _atom_site_label
  _atom_site_symmetry_multiplicity
  _atom_site_fract_x
  _atom_site_fract_y
  _atom_site_fract_z
  _atom_site_occupancy
  Ba  Ba1       1.0  0.1719830482296015  0.32332993895071693  0.14282190751243323  1.0000
  Ba  Ba2       1.0  0.12947381746076356  0.8497911485149476  0.9554148863824596  1.0000
  Ba  Ba3       1.0  0.671340447853127  0.8933818588168121  0.7484694736003386  1.0000
  Ti  Ti1       1.0  0.1080617814496198  0.12575410183326335  0.5751562288347671  1.0000
  O   O1        1.0  0.36516534412517015  0.6246650199704743  0.19310301692472046  1.0000
  Ba  Ba4       1.0  0.020057352117139958  0.7605116090529225  0.341507572296509  1.0000
  Ba  Ba5       1.0  0.632068062424267  0.2871203933798598  0.34681952283222106  1.0000
  Ba  Ba6       1.0  0.23528309553678622  0.5050105150024995  0.7004027795915971  1.0000
  O   O2        1.0  0.0009490602629942265  0.33102711876989144  0.43605362876256154  1.0000
  O   O3        1.0  0.9648910267832308  0.5909423027163624  0.8810925091935815  1.0000
  O   O4        1.0  0.43765960560393347  0.6147095217629449  0.8434870713627943  1.0000
  O   O5        1.0  0.9016815275344409  0.110643520521786  0.17313069219524488  1.0000
  O   O6        1.0  0.3842968338896403  0.14489082178134438  0.5801168199293523  1.0000
  O   O7        1.0  0.5086573462615422  0.9919999706538513  0.9850606593517948  1.0000
  O   O8        1.0  0.9744890086989545  0.16286502899998884  0.7430788058784292  1.0000
  O   O9        1.0  0.44191723612346223  0.0015437134891520543  0.26762089342100587  1.0000
  Ba  Ba7       1.0  0.7220404640103227  0.32830519368130867  0.9480393632282345  1.0000
  Ti  Ti2       1.0  0.5452208691901309  0.8225354919327436  0.15634184801337947  1.0000
  O   O10       1.0  0.04743973567626876  0.8712515073126004  0.5649039879377881  1.0000
  O   O11       1.0  0.8036789314860942  0.6530343580261938  0.18418870708096735  1.0000
