data_image88
_chemical_formula_structural       OBaO2BaO4Ti2O
_chemical_formula_sum              "O8 Ba2 Ti2"
_cell_length_a       4.555399265476846
_cell_length_b       6.205852918854749
_cell_length_c       7.392914295196532
_cell_angle_alpha    101.8887121161751
_cell_angle_beta     92.00378204560647
_cell_angle_gamma    108.54097297022865

_space_group_name_H-M_alt    "P 1"
_space_group_IT_number       1

loop_
  _space_group_symop_operation_xyz
  'x, y, z'

loop_
  _atom_site_type_symbol
  _atom_site_label
  _atom_site_symmetry_multiplicity
  _atom_site_fract_x
  _atom_site_fract_y
  _atom_site_fract_z
  _atom_site_occupancy
  O   O1        1.0  0.44510677106236346  0.9543980172433795  0.2462517500048206  1.0000
  Ba  Ba1       1.0  0.7134787114196635  0.44717825775212244  0.33742385905743655  1.0000
  O   O2        1.0  0.30576701203699447  0.9521192682551038  0.9063905368082514  1.0000
  O   O3        1.0  0.9818616074423442  0.9400929584478648  0.4282447280048495  1.0000
  Ba  Ba2       1.0  0.21348429786761108  0.4467840283487948  0.8373210312170222  1.0000
  O   O4        1.0  0.11900283680777156  0.9406466286930886  0.7678988755924908  1.0000
  O   O5        1.0  0.6201961611704825  0.23155964603921037  0.6364738227525201  1.0000
  O   O6        1.0  0.08355780358819183  0.2385258530527573  0.13851452599213065  1.0000
  O   O7        1.0  0.34316759361008015  0.655721000337821  0.5359759650857538  1.0000
  Ti  Ti1       1.0  0.029383575192587368  0.949978939294262  0.17736836781343415  1.0000
  Ti  Ti2       1.0  0.3974132968424671  0.9442358422918059  0.4970681688098155  1.0000
  O   O8        1.0  0.8062204646709723  0.662406660465991  0.03840301553860681  1.0000
