data_image426
_chemical_formula_structural       OTiBaO
_chemical_formula_sum              "O2 Ti1 Ba1"
_cell_length_a       4.0959516280692085
_cell_length_b       4.099303402391085
_cell_length_c       6.698716640472411
_cell_angle_alpha    72.20457223149675
_cell_angle_beta     72.20005193894022
_cell_angle_gamma    60.032890992141716

_space_group_name_H-M_alt    "P 1"
_space_group_IT_number       1

loop_
  _space_group_symop_operation_xyz
  'x, y, z'

loop_
  _atom_site_type_symbol
  _atom_site_label
  _atom_site_symmetry_multiplicity
  _atom_site_fract_x
  _atom_site_fract_y
  _atom_site_fract_z
  _atom_site_occupancy
  O   O1        1.0  0.5474229073744666  0.48726712044625653  0.6151340339922006  1.0000
  Ti  Ti1       1.0  0.449236669263768  0.3895986593961355  0.9089496245201819  1.0000
  Ba  Ba1       1.0  0.9493474702436477  0.8896627585077886  0.40894337550094706  1.0000
  O   O2        1.0  0.35136833382100113  0.2921014224896209  0.20276816926291955  1.0000
