data_image130
_chemical_formula_structural       TiBaTiBa2O6
_chemical_formula_sum              "Ti2 Ba3 O6"
_cell_length_a       6.3925600574594785
_cell_length_b       6.676501216729701
_cell_length_c       6.798189640045166
_cell_angle_alpha    111.1479683843078
_cell_angle_beta     89.70631803028536
_cell_angle_gamma    118.5836406299613

_space_group_name_H-M_alt    "P 1"
_space_group_IT_number       1

loop_
  _space_group_symop_operation_xyz
  'x, y, z'

loop_
  _atom_site_type_symbol
  _atom_site_label
  _atom_site_symmetry_multiplicity
  _atom_site_fract_x
  _atom_site_fract_y
  _atom_site_fract_z
  _atom_site_occupancy
  Ti  Ti1       1.0  0.5810712390062766  0.665612327255407  0.7651409535284669  1.0000
  Ba  Ba1       1.0  0.7053437636299582  0.9198345179379088  0.3143794305716001  1.0000
  Ti  Ti2       1.0  0.35292900300273333  0.21354083169534285  0.3771766077114771  1.0000
  Ba  Ba2       1.0  0.9670631248715242  0.4395871797961424  0.0711779150856754  1.0000
  Ba  Ba3       1.0  0.22817509682068743  0.9593379264470409  0.8279576759928561  1.0000
  O   O1        1.0  0.21157957884523462  0.9261310251800311  0.42188784904553406  1.0000
  O   O2        1.0  0.12662070187683072  0.2193566635084821  0.22568368881364756  1.0000
  O   O3        1.0  0.34876331476507577  0.659786424517478  0.9182512601443841  1.0000
  O   O4        1.0  0.585278988756177  0.21980746580119662  0.22399347852549253  1.0000
  O   O5        1.0  0.7235283190111728  0.953060032809727  0.7204406665435487  1.0000
  O   O6        1.0  0.8069539898486087  0.6592835340280467  0.916612630602883  1.0000
