data_image97
_chemical_formula_structural       OTiOBa2OTiBaO4
_chemical_formula_sum              "O7 Ti2 Ba3"
_cell_length_a       5.613050048516461
_cell_length_b       5.609333188521154
_cell_length_c       7.467238903045654
_cell_angle_alpha    90.02709103290937
_cell_angle_beta     112.03747820917732
_cell_angle_gamma    89.98276993760093

_space_group_name_H-M_alt    "P 1"
_space_group_IT_number       1

loop_
  _space_group_symop_operation_xyz
  'x, y, z'

loop_
  _atom_site_type_symbol
  _atom_site_label
  _atom_site_symmetry_multiplicity
  _atom_site_fract_x
  _atom_site_fract_y
  _atom_site_fract_z
  _atom_site_occupancy
  O   O1        1.0  0.20586189945314123  0.44587076893013566  0.7735568696507861  1.0000
  Ti  Ti1       1.0  0.4276728709899152  0.6956957308061389  0.7348085926869794  1.0000
  O   O2        1.0  0.29798434638371146  0.6954786645676571  0.47498290978055824  1.0000
  Ba  Ba1       1.0  0.5859426049242096  0.19565008525315986  0.05174660804383266  1.0000
  Ba  Ba2       1.0  0.290960488515365  0.1955462479902836  0.46156811103633466  1.0000
  O   O3        1.0  0.7829252572626889  0.1955688433355382  0.4454490584446711  1.0000
  Ti  Ti2       1.0  0.9606025602571886  0.19582546902857723  0.8007854672159064  1.0000
  Ba  Ba3       1.0  0.8126038616147899  0.695626639113969  0.5043974466231855  1.0000
  O   O4        1.0  0.6880058717043979  0.9453705726609323  0.7736386793972652  1.0000
  O   O5        1.0  0.09008562284272346  0.1958530106499033  0.06003675978651336  1.0000
  O   O6        1.0  0.20595212747314354  0.9454321373516102  0.7735791113039786  1.0000
  O   O7        1.0  0.6879808362076344  0.4458485665347932  0.7737095614884081  1.0000
