data_image213
_chemical_formula_structural       BaTiO2
_chemical_formula_sum              "Ba1 Ti1 O2"
_cell_length_a       3.2967399689876813
_cell_length_b       3.2965010871519693
_cell_length_c       6.320642471313476
_cell_angle_alpha    90.03577903321904
_cell_angle_beta     105.05725568677151
_cell_angle_gamma    119.94682173915506

_space_group_name_H-M_alt    "P 1"
_space_group_IT_number       1

loop_
  _space_group_symop_operation_xyz
  'x, y, z'

loop_
  _atom_site_type_symbol
  _atom_site_label
  _atom_site_symmetry_multiplicity
  _atom_site_fract_x
  _atom_site_fract_y
  _atom_site_fract_z
  _atom_site_occupancy
  Ba  Ba1       1.0  0.8572834923838114  0.3407336797068688  0.24224244309108622  1.0000
  Ti  Ti1       1.0  0.8571514657896844  0.8403909070789891  0.7421479406192606  1.0000
  O   O1        1.0  0.4135530071468631  0.11870590710737709  0.5761875610687286  1.0000
  O   O2        1.0  0.3011368328328068  0.5628247988943833  0.9082967642637372  1.0000
