data_image235
_chemical_formula_structural       O3BaOBa2OBaO2Ti2O
_chemical_formula_sum              "O8 Ba4 Ti2"
_cell_length_a       6.185544202346481
_cell_length_b       6.230491666278619
_cell_length_c       7.543889999389648
_cell_angle_alpha    89.99455884401213
_cell_angle_beta     109.69390314131495
_cell_angle_gamma    89.95173355815601

_space_group_name_H-M_alt    "P 1"
_space_group_IT_number       1

loop_
  _space_group_symop_operation_xyz
  'x, y, z'

loop_
  _atom_site_type_symbol
  _atom_site_label
  _atom_site_symmetry_multiplicity
  _atom_site_fract_x
  _atom_site_fract_y
  _atom_site_fract_z
  _atom_site_occupancy
  O   O1        1.0  0.4134588274245663  0.6277330229751751  0.774540185841298  1.0000
  O   O2        1.0  0.7663498770341893  0.3993874427321489  0.08386911787184656  1.0000
  O   O3        1.0  0.8667706500024723  0.899317588543206  0.5628592793180028  1.0000
  Ba  Ba1       1.0  0.6298534534298688  0.12876383334255517  0.7971544666062494  1.0000
  O   O4        1.0  0.2191461813390294  0.12828434430435856  0.8721414367723227  1.0000
  Ba  Ba2       1.0  0.5217520789408122  0.12821292907485418  0.25529648843832237  1.0000
  Ba  Ba3       1.0  0.002732914645729556  0.628274888153783  0.8496017405561544  1.0000
  O   O5        1.0  0.262929832961451  0.12844805643445117  0.48446170479372425  1.0000
  Ba  Ba4       1.0  0.11056513650340685  0.6284338188526811  0.3913348469471584  1.0000
  O   O6        1.0  0.36963828621658923  0.6284634866684857  0.16221015719349918  1.0000
  O   O7        1.0  0.7658092805550295  0.8573565046567314  0.08365028946569156  1.0000
  Ti  Ti1       1.0  0.569562291752779  0.6283089447694388  0.027189536905594554  1.0000
  Ti  Ti2       1.0  0.06301137246093634  0.1283549426762287  0.6194810047979616  1.0000
  O   O8        1.0  0.8663083809191542  0.3573430518375005  0.5630659084316677  1.0000
