data_image116
_chemical_formula_structural       TiBaOTiBaTiOBaO4TiO5
_chemical_formula_sum              "Ti4 Ba3 O11"
_cell_length_a       5.906474768258539
_cell_length_b       6.349646195188233
_cell_length_c       9.963743209838867
_cell_angle_alpha    97.89124809046197
_cell_angle_beta     91.22724406796056
_cell_angle_gamma    104.14402018441453

_space_group_name_H-M_alt    "P 1"
_space_group_IT_number       1

loop_
  _space_group_symop_operation_xyz
  'x, y, z'

loop_
  _atom_site_type_symbol
  _atom_site_label
  _atom_site_symmetry_multiplicity
  _atom_site_fract_x
  _atom_site_fract_y
  _atom_site_fract_z
  _atom_site_occupancy
  Ti  Ti1       1.0  0.3256789511176107  0.15408003975673631  0.5251785712611804  1.0000
  Ba  Ba1       1.0  0.7716226307100584  0.1678349905588253  0.25377685771203135  1.0000
  O   O1        1.0  0.33854767556711923  0.44930006831439584  0.5296689329130638  1.0000
  Ti  Ti2       1.0  0.4692150334089694  0.5601606679449121  0.18765736975580266  1.0000
  Ba  Ba2       1.0  0.2505346064601692  0.9628207336043118  0.9291436894616701  1.0000
  Ti  Ti3       1.0  0.24056324542042654  0.4888924997346588  0.7117593660945489  1.0000
  O   O2        1.0  0.1606318809111257  0.47829209566106623  0.24529141567548787  1.0000
  Ba  Ba3       1.0  0.7511003308110353  0.7656431865581953  0.5786144448167448  1.0000
  O   O3        1.0  0.6028622988151482  0.10391369374299662  0.5016541225033454  1.0000
  O   O4        1.0  0.1038850585774045  0.9688518902693102  0.39648142154431976  1.0000
  O   O5        1.0  0.3911145500223009  0.8238846464296581  0.16063811138452858  1.0000
  O   O6        1.0  0.0019647192035046343  0.6062612799691725  0.7346808783579214  1.0000
  Ti  Ti4       1.0  0.06689186978636782  0.749138836621186  0.2418903575335596  1.0000
  O   O7        1.0  0.7357884029599274  0.6010982894061064  0.30617630748971375  1.0000
  O   O8        1.0  0.9363771795965615  0.8435231136422614  0.10954310156922227  1.0000
  O   O9        1.0  0.49471141800224216  0.3395189710262825  0.06700367769415852  1.0000
  O   O10       1.0  0.2164655057594426  0.1679402780429174  0.7017934170259925  1.0000
  O   O11       1.0  0.47677717781415907  0.6959818849318156  0.7925867239227554  1.0000
