data_image743
_chemical_formula_structural       Ba2TiBa2O2TiOTiO3TiO2
_chemical_formula_sum              "Ba4 Ti4 O8"
_cell_length_a       3.939624996131342
_cell_length_b       5.845439010779654
_cell_length_c       11.70766830444336
_cell_angle_alpha    89.99224341005004
_cell_angle_beta     90.01869673266381
_cell_angle_gamma    90.00093824051278

_space_group_name_H-M_alt    "P 1"
_space_group_IT_number       1

loop_
  _space_group_symop_operation_xyz
  'x, y, z'

loop_
  _atom_site_type_symbol
  _atom_site_label
  _atom_site_symmetry_multiplicity
  _atom_site_fract_x
  _atom_site_fract_y
  _atom_site_fract_z
  _atom_site_occupancy
  Ba  Ba1       1.0  0.6465884459846094  0.6374991367043608  0.18380788138638962  1.0000
  Ba  Ba2       1.0  0.6464117345863251  0.6093394120968196  0.6839536653014069  1.0000
  Ti  Ti1       1.0  0.14632344926761265  0.5934141856946163  0.4469143480010933  1.0000
  Ba  Ba3       1.0  0.6464736264619897  0.1322114050065824  0.9201662524667782  1.0000
  Ba  Ba4       1.0  0.6462809187610062  0.10193791668676006  0.42959990200476755  1.0000
  O   O1        1.0  0.14632123590147925  0.34617468466429085  0.5549357614182354  1.0000
  O   O2        1.0  0.14644177817378856  0.8692654156209976  0.805322018610047  1.0000
  Ti  Ti2       1.0  0.14638719949633877  0.08633038320081787  0.6696668649546262  1.0000
  O   O3        1.0  0.6462641315352023  0.5984113576868619  0.42730279178926567  1.0000
  Ti  Ti3       1.0  0.14655142286522516  0.1454163117373797  0.15749993580627766  1.0000
  O   O4        1.0  0.6464015013941121  0.11476659305611125  0.6812156938331998  1.0000
  O   O5        1.0  0.1463357325147055  0.8488664727807973  0.5532128128260383  1.0000
  O   O6        1.0  0.6464839528086439  0.6256528753730224  0.9304570651460875  1.0000
  Ti  Ti4       1.0  0.14649646997355717  0.6545192675490047  0.9391870074233845  1.0000
  O   O7        1.0  0.14655621184414466  0.8917953054853481  0.06185836270694422  1.0000
  O   O8        1.0  0.14655942243772108  0.3946538365950776  0.06206703613819958  1.0000
