data_image347
_chemical_formula_structural       OTiO3TiBaO
_chemical_formula_sum              "O5 Ti2 Ba1"
_cell_length_a       5.754952544647658
_cell_length_b       5.297886639669393
_cell_length_c       5.793025016784668
_cell_angle_alpha    117.10217150106105
_cell_angle_beta     119.67798952069359
_cell_angle_gamma    90.05058018221368

_space_group_name_H-M_alt    "P 1"
_space_group_IT_number       1

loop_
  _space_group_symop_operation_xyz
  'x, y, z'

loop_
  _atom_site_type_symbol
  _atom_site_label
  _atom_site_symmetry_multiplicity
  _atom_site_fract_x
  _atom_site_fract_y
  _atom_site_fract_z
  _atom_site_occupancy
  O   O1        1.0  0.1477044532358462  0.03836499908288344  0.9950362251345837  1.0000
  Ti  Ti1       1.0  0.9834963403753371  0.6447520357639616  0.6652820983646176  1.0000
  O   O2        1.0  0.26200261415236065  0.4567600388347276  0.8085504377152686  1.0000
  O   O3        1.0  0.09538128608618848  0.6206567981192233  0.39424795621324965  1.0000
  O   O4        1.0  0.8484189463206202  0.4555135893140253  0.8080133960024393  1.0000
  Ti  Ti2       1.0  0.20213531224711573  0.4326160099899121  0.10229762033200314  1.0000
  Ba  Ba1       1.0  0.718487364759572  0.8827397968968564  0.135227365063388  1.0000
  O   O5        1.0  0.6009702975521444  0.6190721334414576  0.39373896188870083  1.0000
