data_image714
_chemical_formula_structural       Ba3TiOBaOTiO9Ti
_chemical_formula_sum              "Ba4 Ti3 O11"
_cell_length_a       3.953753106300417
_cell_length_b       3.962236670066509
_cell_length_c       17.87877082824707
_cell_angle_alpha    96.37148972423145
_cell_angle_beta     96.27414569282202
_cell_angle_gamma    90.02147663258326

_space_group_name_H-M_alt    "P 1"
_space_group_IT_number       1

loop_
  _space_group_symop_operation_xyz
  'x, y, z'

loop_
  _atom_site_type_symbol
  _atom_site_label
  _atom_site_symmetry_multiplicity
  _atom_site_fract_x
  _atom_site_fract_y
  _atom_site_fract_z
  _atom_site_occupancy
  Ba  Ba1       1.0  0.7391433494483275  0.5304408958505865  0.14734567024454806  1.0000
  Ba  Ba2       1.0  0.617087945894048  0.4072289061623747  0.9005735663129865  1.0000
  Ba  Ba3       1.0  0.8529434882055419  0.6468118865395784  0.3797041950794422  1.0000
  Ti  Ti1       1.0  0.1789991277511383  0.9696546200079282  0.025567848570434547  1.0000
  O   O1        1.0  0.12859230183492384  0.9185379024867294  0.9238842657979587  1.0000
  Ba  Ba4       1.0  0.9573648405569075  0.2459335289955552  0.5772424909130164  1.0000
  O   O2        1.0  0.29844988586574733  0.5908894609894374  0.26787994819256056  1.0000
  Ti  Ti2       1.0  0.5180407664583181  0.8078957288136797  0.7011689980584112  1.0000
  O   O3        1.0  0.6837403533326114  0.9740745443021511  0.035021600009232684  1.0000
  O   O4        1.0  0.182703838379981  0.472959479740462  0.03262242630007572  1.0000
  O   O5        1.0  0.2423890295414068  0.03390710727407999  0.15424764066111196  1.0000
  O   O6        1.0  0.7983596056230697  0.09099079109224145  0.2681708745260672  1.0000
  O   O7        1.0  0.005764514178554587  0.7955637442260667  0.6763025965500481  1.0000
  O   O8        1.0  0.5071030562401577  0.2968194960261976  0.6789304169721778  1.0000
  O   O9        1.0  0.5657073048252085  0.8562383105691497  0.7981137248366812  1.0000
  O   O10       1.0  0.44349423980773583  0.7314548746203704  0.5483434726956414  1.0000
  O   O11       1.0  0.35186792648374743  0.14561467009337525  0.3772010254938833  1.0000
  Ti  Ti3       1.0  0.29829651898222037  0.09059161823000783  0.26760832812237845  1.0000
