data_image264
_chemical_formula_structural       BaTiO2
_chemical_formula_sum              "Ba1 Ti1 O2"
_cell_length_a       3.328585994047468
_cell_length_b       3.3265961969632225
_cell_length_c       6.281695365905762
_cell_angle_alpha    74.64872817476872
_cell_angle_beta     74.62629650347606
_cell_angle_gamma    59.968118992734304

_space_group_name_H-M_alt    "P 1"
_space_group_IT_number       1

loop_
  _space_group_symop_operation_xyz
  'x, y, z'

loop_
  _atom_site_type_symbol
  _atom_site_label
  _atom_site_symmetry_multiplicity
  _atom_site_fract_x
  _atom_site_fract_y
  _atom_site_fract_z
  _atom_site_occupancy
  Ba  Ba1       1.0  0.9831098501568245  0.6890336637591974  0.7220521010879757  1.0000
  Ti  Ti1       1.0  0.4832590491161896  0.1890276477400982  0.22191877346566538  1.0000
  O   O1        1.0  0.7614045638491119  0.46729844744557575  0.3871462706718713  1.0000
  O   O2        1.0  0.20491575840175322  0.9107243594502634  0.05685862502344535  1.0000
