data_image290
_chemical_formula_structural       Ti2Ba2OTi2
_chemical_formula_sum              "Ti4 Ba2 O1"
_cell_length_a       4.057952687889159
_cell_length_b       4.058622714551214
_cell_length_c       12.30088520050049
_cell_angle_alpha    99.46076458778009
_cell_angle_beta     99.44420102172026
_cell_angle_gamma    89.96044179917916

_space_group_name_H-M_alt    "P 1"
_space_group_IT_number       1

loop_
  _space_group_symop_operation_xyz
  'x, y, z'

loop_
  _atom_site_type_symbol
  _atom_site_label
  _atom_site_symmetry_multiplicity
  _atom_site_fract_x
  _atom_site_fract_y
  _atom_site_fract_z
  _atom_site_occupancy
  Ti  Ti1       1.0  0.11498076681829046  0.3853679329710836  0.8076037978254371  1.0000
  Ti  Ti2       1.0  0.035016722454564525  0.805495813903679  0.6473146236339075  1.0000
  Ba  Ba1       1.0  0.3829710609560576  0.6531760476448204  0.3415690160954707  1.0000
  Ba  Ba2       1.0  0.6874170152255662  0.9578613492580925  0.9536644754313475  1.0000
  O   O1        1.0  0.5348130462547624  0.8052693262241779  0.6469150175452226  1.0000
  Ti  Ti3       1.0  0.9551992410587894  0.2258461578148223  0.48722266728176383  1.0000
  Ti  Ti4       1.0  0.5350003207033175  0.3054717801209023  0.6472902224278101  1.0000
