data_image569
_chemical_formula_structural       Ba2OBa2OTi2OTiO5
_chemical_formula_sum              "Ba4 O8 Ti3"
_cell_length_a       6.013392164012997
_cell_length_b       6.766035184543911
_cell_length_c       7.404057502746583
_cell_angle_alpha    109.4340285880494
_cell_angle_beta     89.29472404450935
_cell_angle_gamma    88.47729372472196

_space_group_name_H-M_alt    "P 1"
_space_group_IT_number       1

loop_
  _space_group_symop_operation_xyz
  'x, y, z'

loop_
  _atom_site_type_symbol
  _atom_site_label
  _atom_site_symmetry_multiplicity
  _atom_site_fract_x
  _atom_site_fract_y
  _atom_site_fract_z
  _atom_site_occupancy
  Ba  Ba1       1.0  0.21542988820714415  0.15246216701395118  0.9960224717127087  1.0000
  Ba  Ba2       1.0  0.7244530406041553  0.06315710771942526  0.39772745977740276  1.0000
  O   O1        1.0  0.18441876413430924  0.025228311229807954  0.30492406972006025  1.0000
  Ba  Ba3       1.0  0.7074625128745243  0.7940112375304126  0.8188446135899037  1.0000
  Ba  Ba4       1.0  0.2079081378480642  0.4319163159579108  0.5867353579644644  1.0000
  O   O2        1.0  0.8449360103139488  0.6625871844266585  0.13775877382487783  1.0000
  Ti  Ti1       1.0  0.2290877425185843  0.8959589304353278  0.5056258397074916  1.0000
  Ti  Ti2       1.0  0.6798828486300701  0.49017464549807077  0.24524816820244352  1.0000
  O   O3        1.0  0.29217066426249283  0.7366717131854418  0.9159552745988161  1.0000
  Ti  Ti3       1.0  0.15945649549067423  0.7119335883466025  0.1363048310721903  1.0000
  O   O4        1.0  0.4580524082345731  0.02345199870525598  0.6622911499415004  1.0000
  O   O5        1.0  0.3918761862889673  0.6315647107822814  0.30168549424702956  1.0000
  O   O6        1.0  0.6652515640039135  0.21515864709459956  0.09880487928941545  1.0000
  O   O7        1.0  0.986110406881782  0.9892939317826939  0.6645989003330262  1.0000
  O   O8        1.0  0.7747352114142333  0.47949583277620084  0.4775622681982557  1.0000
