data_image827
_chemical_formula_structural       BaTiO2
_chemical_formula_sum              "Ba1 Ti1 O2"
_cell_length_a       3.3195560140469857
_cell_length_b       3.320336208976884
_cell_length_c       6.2808098793029785
_cell_angle_alpha    74.70116393383302
_cell_angle_beta     74.68748281285811
_cell_angle_gamma    60.08639698613971

_space_group_name_H-M_alt    "P 1"
_space_group_IT_number       1

loop_
  _space_group_symop_operation_xyz
  'x, y, z'

loop_
  _atom_site_type_symbol
  _atom_site_label
  _atom_site_symmetry_multiplicity
  _atom_site_fract_x
  _atom_site_fract_y
  _atom_site_fract_z
  _atom_site_occupancy
  Ba  Ba1       1.0  0.27295909676624464  0.7948353832280957  0.6983558730696439  1.0000
  Ti  Ti1       1.0  0.7731689767517551  0.2943322883346074  0.19842108702390415  1.0000
  O   O1        1.0  0.05104462643476607  0.5726691275053742  0.36426253874667924  1.0000
  O   O2        1.0  0.4949640177704788  0.016567499196183257  0.03251621913913841  1.0000
