data_image22
_chemical_formula_structural       TiBa2OBaO5Ti
_chemical_formula_sum              "Ti2 Ba3 O6"
_cell_length_a       4.026075841978316
_cell_length_b       4.025736435988818
_cell_length_c       11.260798454284668
_cell_angle_alpha    100.2929128991032
_cell_angle_beta     100.31680528316613
_cell_angle_gamma    90.02855974451329

_space_group_name_H-M_alt    "P 1"
_space_group_IT_number       1

loop_
  _space_group_symop_operation_xyz
  'x, y, z'

loop_
  _atom_site_type_symbol
  _atom_site_label
  _atom_site_symmetry_multiplicity
  _atom_site_fract_x
  _atom_site_fract_y
  _atom_site_fract_z
  _atom_site_occupancy
  Ti  Ti1       1.0  0.2809349229717179  0.9500819375051337  0.7652021898284247  1.0000
  Ba  Ba1       1.0  0.06504631502505254  0.7339933209971514  0.3336055152458424  1.0000
  Ba  Ba2       1.0  0.6981740668125564  0.367428851876795  0.6000644481520608  1.0000
  O   O1        1.0  0.19214173389843822  0.8613592586294603  0.5879117609469574  1.0000
  Ba  Ba3       1.0  0.8816421237417036  0.5507287662405529  0.9668115704905825  1.0000
  O   O2        1.0  0.9732155031104442  0.1422665458885583  0.15023168121619143  1.0000
  O   O3        1.0  0.4732071220765537  0.6422418405287835  0.1501625210622264  1.0000
  O   O4        1.0  0.5712145607475465  0.24012240834517135  0.34575970058058003  1.0000
  O   O5        1.0  0.2901425133391152  0.4592606643695824  0.7834817483595187  1.0000
  O   O6        1.0  0.7901462204046911  0.9592723480891732  0.7834521966042965  1.0000
  Ti  Ti2       1.0  0.4823825155379534  0.1514075250948525  0.16846548744096762  1.0000
