data_image166
_chemical_formula_structural       TiOTiOBaO3BaO
_chemical_formula_sum              "Ti2 O6 Ba2"
_cell_length_a       4.277624608258185
_cell_length_b       5.641463103882566
_cell_length_c       5.643918514251709
_cell_angle_alpha    90.05069617045226
_cell_angle_beta     90.00134122161685
_cell_angle_gamma    90.01334186451646

_space_group_name_H-M_alt    "P 1"
_space_group_IT_number       1

loop_
  _space_group_symop_operation_xyz
  'x, y, z'

loop_
  _atom_site_type_symbol
  _atom_site_label
  _atom_site_symmetry_multiplicity
  _atom_site_fract_x
  _atom_site_fract_y
  _atom_site_fract_z
  _atom_site_occupancy
  Ti  Ti1       1.0  0.8455336137420655  0.5087051950681281  0.15778539830469385  1.0000
  O   O1        1.0  0.26983583797107835  0.5091293407669072  0.15838514498775116  1.0000
  Ti  Ti2       1.0  0.8454868068135056  0.00871859570715295  0.6577603948559847  1.0000
  O   O2        1.0  0.7940584540753434  0.7593864678093425  0.4087066073262955  1.0000
  Ba  Ba1       1.0  0.3274139500812269  0.509014105371021  0.6582050683167321  1.0000
  O   O3        1.0  0.7943544275706869  0.7592764677241259  0.9085867094800671  1.0000
  O   O4        1.0  0.7940826866370547  0.2594306784044431  0.9086556678723859  1.0000
  O   O5        1.0  0.794316800286369  0.2591836399811206  0.4085070348379762  1.0000
  Ba  Ba2       1.0  0.32726915401428974  0.00900156403375742  0.1581699854175135  1.0000
  O   O6        1.0  0.26984699304373755  0.009157742642592016  0.6583190098377765  1.0000
