data_image926
_chemical_formula_structural       Ba4OBaTi2O3BaO4
_chemical_formula_sum              "Ba6 O8 Ti2"
_cell_length_a       5.9417063743923295
_cell_length_b       7.382452061206521
_cell_length_c       8.234358787536621
_cell_angle_alpha    90.17242380114125
_cell_angle_beta     90.07040126108487
_cell_angle_gamma    89.92851773924829

_space_group_name_H-M_alt    "P 1"
_space_group_IT_number       1

loop_
  _space_group_symop_operation_xyz
  'x, y, z'

loop_
  _atom_site_type_symbol
  _atom_site_label
  _atom_site_symmetry_multiplicity
  _atom_site_fract_x
  _atom_site_fract_y
  _atom_site_fract_z
  _atom_site_occupancy
  Ba  Ba1       1.0  0.03943813910845106  0.40873731694607923  0.024274945966420613  1.0000
  Ba  Ba2       1.0  0.03184573626189481  0.9233507783888751  0.7723262871432667  1.0000
  Ba  Ba3       1.0  0.5251938986421405  0.5979926913937663  0.2734424207883696  1.0000
  Ba  Ba4       1.0  0.0318616324554512  0.9235019665113049  0.2757614592243167  1.0000
  O   O1        1.0  0.47397252113046656  0.9767056987660289  0.8332513447517985  1.0000
  Ba  Ba5       1.0  0.5253778912225037  0.5981405673813796  0.7769543691208588  1.0000
  Ti  Ti1       1.0  0.9994802179132686  0.42597993153620567  0.5245350815228443  1.0000
  Ti  Ti2       1.0  0.5576247842271402  0.09557735893244175  0.024710499413402785  1.0000
  O   O2        1.0  0.8702266030811309  0.09094481141838101  0.024517428965448625  1.0000
  O   O3        1.0  0.4871539055095252  0.3431614749111994  0.02485634893750988  1.0000
  O   O4        1.0  0.4745211331745536  0.977481819586461  0.2158908303956932  1.0000
  Ba  Ba6       1.0  0.5176601711583666  0.11278285444543278  0.5249699244339385  1.0000
  O   O5        1.0  0.08314327430501779  0.5448503656375888  0.7159965590421508  1.0000
  O   O6        1.0  0.6868710420138096  0.43060105697075457  0.5247023851326508  1.0000
  O   O7        1.0  0.06987088556032367  0.17837342668353048  0.5243236816664115  1.0000
  O   O8        1.0  0.08262877780782085  0.5441790563848674  0.3334148854578949  1.0000
