data_image824
_chemical_formula_structural       OTiBaOBaTiOBaOTiBaO2TiO2
_chemical_formula_sum              "O8 Ti4 Ba4"
_cell_length_a       4.165597904586352
_cell_length_b       7.9995985057247925
_cell_length_c       8.017215728759766
_cell_angle_alpha    90.0014641650097
_cell_angle_beta     89.93297784997934
_cell_angle_gamma    89.99208631593456

_space_group_name_H-M_alt    "P 1"
_space_group_IT_number       1

loop_
  _space_group_symop_operation_xyz
  'x, y, z'

loop_
  _atom_site_type_symbol
  _atom_site_label
  _atom_site_symmetry_multiplicity
  _atom_site_fract_x
  _atom_site_fract_y
  _atom_site_fract_z
  _atom_site_occupancy
  O   O1        1.0  0.14679251701590262  0.7170710720824767  0.719053538948468  1.0000
  Ti  Ti1       1.0  0.1471542677979211  0.9670572455190721  0.7189236155211967  1.0000
  Ba  Ba1       1.0  0.6471176319866428  0.2168552534098112  0.4691322612123244  1.0000
  O   O2        1.0  0.1471768191060361  0.967262347792797  0.9688260530222245  1.0000
  Ba  Ba2       1.0  0.6471844600883294  0.7170659568479637  0.968984475155318  1.0000
  Ti  Ti2       1.0  0.14692195864185043  0.4671338300905315  0.7191865940089684  1.0000
  O   O3        1.0  0.14657037347891816  0.46721745416854144  0.4692089543180193  1.0000
  Ba  Ba3       1.0  0.6468737427449567  0.21745537058620806  0.9690888729306277  1.0000
  O   O4        1.0  0.1470563040502586  0.21705323290339862  0.7188168469246098  1.0000
  Ti  Ti3       1.0  0.14689346032665176  0.46710912815647515  0.21919014080860538  1.0000
  Ba  Ba4       1.0  0.6470803357006707  0.7172570976792839  0.4689627593272849  1.0000
  O   O5        1.0  0.146607279976539  0.717057196664878  0.21882869171798935  1.0000
  O   O6        1.0  0.14715105552617272  0.2170756669089106  0.21927013058689826  1.0000
  Ti  Ti4       1.0  0.14715775416407476  0.9671064936972508  0.21874851370374265  1.0000
  O   O7        1.0  0.1475895846620472  0.9668855075671687  0.4687676816779786  1.0000
  O   O8        1.0  0.14712936489797301  0.46691532247616785  0.9691444063075219  1.0000
