data_image461
_chemical_formula_structural       TiBaOTiOBaO2TiOTiO5
_chemical_formula_sum              "Ti4 Ba2 O10"
_cell_length_a       3.8094854725793823
_cell_length_b       6.353892215742004
_cell_length_c       9.571840286254883
_cell_angle_alpha    96.22189513832778
_cell_angle_beta     89.99200435274187
_cell_angle_gamma    89.93960997541377

_space_group_name_H-M_alt    "P 1"
_space_group_IT_number       1

loop_
  _space_group_symop_operation_xyz
  'x, y, z'

loop_
  _atom_site_type_symbol
  _atom_site_label
  _atom_site_symmetry_multiplicity
  _atom_site_fract_x
  _atom_site_fract_y
  _atom_site_fract_z
  _atom_site_occupancy
  Ti  Ti1       1.0  0.6876131780355401  0.22361426799757184  0.1601247514211832  1.0000
  Ba  Ba1       1.0  0.17688932338507216  0.288492602998463  0.8571689739645353  1.0000
  O   O1        1.0  0.6546124431172824  0.16398584980744962  0.6070660835352126  1.0000
  Ti  Ti2       1.0  0.6911245678305179  0.8587795231298989  0.6931289845536938  1.0000
  O   O2        1.0  0.6681195454636093  0.9014757451794703  0.17759607941460695  1.0000
  Ba  Ba2       1.0  0.1693154354039555  0.9375080640167672  0.3820752141974897  1.0000
  O   O3        1.0  0.6590455931787512  0.7001180037554171  0.48713888375094727  1.0000
  O   O4        1.0  0.17798202685177075  0.7034222788002882  0.976837713101171  1.0000
  Ti  Ti3       1.0  0.671964256780267  0.4276647789754404  0.5411716021299662  1.0000
  O   O5        1.0  0.6729262913099093  0.9759923230093828  0.8832776344645874  1.0000
  Ti  Ti4       1.0  0.6491454595522445  0.7432948803665063  0.007483901698736606  1.0000
  O   O6        1.0  0.16294999111491118  0.8929173250637081  0.6699803694995702  1.0000
  O   O7        1.0  0.6888044338405955  0.30119138765655223  0.35289199671216165  1.0000
  O   O8        1.0  0.17541551967908894  0.18854810244287454  0.13913970775144566  1.0000
  O   O9        1.0  0.6833583723030641  0.564498756905873  0.7303797791946808  1.0000
  O   O10       1.0  0.6761681018656187  0.43999881483609227  0.04572110029237745  1.0000
