data_image468
_chemical_formula_structural       BaO2TiO
_chemical_formula_sum              "Ba1 O3 Ti1"
_cell_length_a       4.081768658406815
_cell_length_b       4.0833156320112485
_cell_length_c       4.087787628173828
_cell_angle_alpha    89.73076328473945
_cell_angle_beta     90.23873127712561
_cell_angle_gamma    90.23289146233577

_space_group_name_H-M_alt    "P 1"
_space_group_IT_number       1

loop_
  _space_group_symop_operation_xyz
  'x, y, z'

loop_
  _atom_site_type_symbol
  _atom_site_label
  _atom_site_symmetry_multiplicity
  _atom_site_fract_x
  _atom_site_fract_y
  _atom_site_fract_z
  _atom_site_occupancy
  Ba  Ba1       1.0  0.7297695257972612  0.4789108348392937  0.736939124411328  1.0000
  O   O1        1.0  0.2453545624004407  0.9629878718434519  0.7085057455727427  1.0000
  O   O2        1.0  0.7577206515785526  0.9621566859129561  0.22081731690281012  1.0000
  Ti  Ti1       1.0  0.21479325843540634  0.9938798093197574  0.25240699903532615  1.0000
  O   O3        1.0  0.2460291162982494  0.45051119601819317  0.22100031954261082  1.0000
