data_image616
_chemical_formula_structural       TiBaTi2OTiO6
_chemical_formula_sum              "Ti4 Ba1 O7"
_cell_length_a       4.1229416684753275
_cell_length_b       4.124463582452713
_cell_length_c       8.744820594787598
_cell_angle_alpha    103.52109975492003
_cell_angle_beta     103.55924598805909
_cell_angle_gamma    89.91556775658006

_space_group_name_H-M_alt    "P 1"
_space_group_IT_number       1

loop_
  _space_group_symop_operation_xyz
  'x, y, z'

loop_
  _atom_site_type_symbol
  _atom_site_label
  _atom_site_symmetry_multiplicity
  _atom_site_fract_x
  _atom_site_fract_y
  _atom_site_fract_z
  _atom_site_occupancy
  Ti  Ti1       1.0  0.1740410282260036  0.4435943399965088  0.14210616830067688  1.0000
  Ba  Ba1       1.0  0.7917836482520378  0.06097489252089384  0.37820905495070456  1.0000
  Ti  Ti2       1.0  0.04160773834387738  0.8109780223347121  0.8780303076442869  1.0000
  Ti  Ti3       1.0  0.4095522870479421  0.67852804953222  0.6143809428924459  1.0000
  O   O1        1.0  0.04361225856597917  0.31311616325605535  0.8823103304575962  1.0000
  Ti  Ti4       1.0  0.541389369382027  0.3109063886066291  0.8778244753888622  1.0000
  O   O2        1.0  0.291715540892511  0.5609492683027585  0.37802916480375115  1.0000
  O   O3        1.0  0.4163564099401516  0.185461925155896  0.6274792566083971  1.0000
  O   O4        1.0  0.6668285697020604  0.43617529887869555  0.12830999971231624  1.0000
  O   O5        1.0  0.16680158392784056  0.9363910671450145  0.1284720480700639  1.0000
  O   O6        1.0  0.9163817966524576  0.6857143486864574  0.6276641852012439  1.0000
  O   O7        1.0  0.5395684864462831  0.809010971431729  0.87394849498758  1.0000
