data_image544
_chemical_formula_structural       BaTi2O2BaO4
_chemical_formula_sum              "Ba2 Ti2 O6"
_cell_length_a       4.134309148572342
_cell_length_b       4.126567556382619
_cell_length_c       7.942953586578369
_cell_angle_alpha    90.03263714852234
_cell_angle_beta     90.03587465810068
_cell_angle_gamma    89.55528888289207

_space_group_name_H-M_alt    "P 1"
_space_group_IT_number       1

loop_
  _space_group_symop_operation_xyz
  'x, y, z'

loop_
  _atom_site_type_symbol
  _atom_site_label
  _atom_site_symmetry_multiplicity
  _atom_site_fract_x
  _atom_site_fract_y
  _atom_site_fract_z
  _atom_site_occupancy
  Ba  Ba1       1.0  0.6965936327732588  0.2217077700045529  0.12162937373754908  1.0000
  Ti  Ti1       1.0  0.2140111306278316  0.7387746775634728  0.8715102790500854  1.0000
  Ti  Ti2       1.0  0.2138876651672781  0.738594905293257  0.3715501848278346  1.0000
  O   O1        1.0  0.17225863768170574  0.6977810849189116  0.6216776336059412  1.0000
  O   O2        1.0  0.18012386024168203  0.18697043085142664  0.8716293643009654  1.0000
  Ba  Ba2       1.0  0.6965208195746257  0.221583907236619  0.6215757484301387  1.0000
  O   O3        1.0  0.1798652406432772  0.18674097609925172  0.37168706891828057  1.0000
  O   O4        1.0  0.6605472471894035  0.7054790558808081  0.37171203523095386  1.0000
  O   O5        1.0  0.1723234264649651  0.6977736295930067  0.12168593245824802  1.0000
  O   O6        1.0  0.6606177714683305  0.7059221084832463  0.8716669875580091  1.0000
