data_image806
_chemical_formula_structural       BaOTi2OBaO3
_chemical_formula_sum              "Ba2 O5 Ti2"
_cell_length_a       4.098722317462385
_cell_length_b       6.005052240979068
_cell_length_c       6.404228210449219
_cell_angle_alpha    105.99148410283166
_cell_angle_beta     90.036093224365
_cell_angle_gamma    109.84780683191646

_space_group_name_H-M_alt    "P 1"
_space_group_IT_number       1

loop_
  _space_group_symop_operation_xyz
  'x, y, z'

loop_
  _atom_site_type_symbol
  _atom_site_label
  _atom_site_symmetry_multiplicity
  _atom_site_fract_x
  _atom_site_fract_y
  _atom_site_fract_z
  _atom_site_occupancy
  Ba  Ba1       1.0  0.5133767220699227  0.23146486390871548  0.8952207854797193  1.0000
  O   O1        1.0  0.4536163227464277  0.11114059064831094  0.27933567738838183  1.0000
  Ti  Ti1       1.0  0.9540930476120438  0.11182561982916947  0.3148691226159341  1.0000
  Ti  Ti2       1.0  0.26945090713662084  0.7441981280575483  0.12985124283719093  1.0000
  O   O2        1.0  0.9606751230606361  0.12568556322557453  0.6075838981820879  1.0000
  Ba  Ba2       1.0  0.7101487909854663  0.6245551456318069  0.549596732959382  1.0000
  O   O3        1.0  0.7699519160828556  0.7448385753203057  0.16540304478055812  1.0000
  O   O4        1.0  0.11170976593022672  0.42801719552548373  0.2223415433275527  1.0000
  O   O5        1.0  0.26288047314554913  0.730473656950647  0.8371627395258807  1.0000
