data_image737
_chemical_formula_structural       OBaTiO
_chemical_formula_sum              "O2 Ba1 Ti1"
_cell_length_a       4.01249029635861
_cell_length_b       4.101292489160223
_cell_length_c       4.019450664520264
_cell_angle_alpha    90.05347605789339
_cell_angle_beta     90.00624529744218
_cell_angle_gamma    89.99948341010938

_space_group_name_H-M_alt    "P 1"
_space_group_IT_number       1

loop_
  _space_group_symop_operation_xyz
  'x, y, z'

loop_
  _atom_site_type_symbol
  _atom_site_label
  _atom_site_symmetry_multiplicity
  _atom_site_fract_x
  _atom_site_fract_y
  _atom_site_fract_z
  _atom_site_occupancy
  O   O1        1.0  0.7535216680578147  0.2898315327385596  0.8454228491705688  1.0000
  Ba  Ba1       1.0  0.25358138938507463  0.7901567098028929  0.845274643735406  1.0000
  Ti  Ti1       1.0  0.75349639730726  0.29027145783024166  0.3447769840360063  1.0000
  O   O2        1.0  0.2536400046688585  0.2904902714024812  0.34516659525208304  1.0000
