data_image1010
_chemical_formula_structural       BaTi2OTiO5BaO
_chemical_formula_sum              "Ba2 Ti3 O7"
_cell_length_a       3.871456071862903
_cell_length_b       4.8347463726813515
_cell_length_c       9.640576362609863
_cell_angle_alpha    80.02369177978531
_cell_angle_beta     80.55148078419681
_cell_angle_gamma    85.78156861637576

_space_group_name_H-M_alt    "P 1"
_space_group_IT_number       1

loop_
  _space_group_symop_operation_xyz
  'x, y, z'

loop_
  _atom_site_type_symbol
  _atom_site_label
  _atom_site_symmetry_multiplicity
  _atom_site_fract_x
  _atom_site_fract_y
  _atom_site_fract_z
  _atom_site_occupancy
  Ba  Ba1       1.0  0.9353896396610654  0.32813256251538503  0.3940041222321436  1.0000
  Ti  Ti1       1.0  0.19945976965562143  0.6363530145276085  0.014650349175481688  1.0000
  Ti  Ti2       1.0  0.3746299615101253  0.8046943890955572  0.5969110466857475  1.0000
  O   O1        1.0  0.4319948727532844  0.8636417662349771  0.3864226843871943  1.0000
  Ti  Ti3       1.0  0.5082464003394122  0.9129309525067048  0.17708084432570487  1.0000
  O   O2        1.0  0.3602812827742433  0.18017730973456947  0.6043378484489023  1.0000
  O   O3        1.0  0.862657485293128  0.7105149276299738  0.5893571001945609  1.0000
  O   O4        1.0  0.35290215224254  0.27590404358631165  0.09616331438169357  1.0000
  O   O5        1.0  0.015713525225687613  0.7867504815488893  0.1944886126644677  1.0000
  O   O6        1.0  0.6904894914149012  0.7638032989066877  0.992731610325475  1.0000
  Ba  Ba2       1.0  0.7938597752997995  0.25258667576608235  0.8053706021773256  1.0000
  O   O7        1.0  0.2731148097831479  0.6512242876303928  0.802403141744473  1.0000
