data_image1062
_chemical_formula_structural       Ba2OBaOBaO3TiOTi2O3
_chemical_formula_sum              "Ba4 O9 Ti3"
_cell_length_a       5.729584466598922
_cell_length_b       5.736252972904473
_cell_length_c       9.199112892150879
_cell_angle_alpha    104.0059264441487
_cell_angle_beta     103.93036364170695
_cell_angle_gamma    91.61843681137128

_space_group_name_H-M_alt    "P 1"
_space_group_IT_number       1

loop_
  _space_group_symop_operation_xyz
  'x, y, z'

loop_
  _atom_site_type_symbol
  _atom_site_label
  _atom_site_symmetry_multiplicity
  _atom_site_fract_x
  _atom_site_fract_y
  _atom_site_fract_z
  _atom_site_occupancy
  Ba  Ba1       1.0  0.621965929668476  0.6529506376707505  0.22596743411702364  1.0000
  Ba  Ba2       1.0  0.32359217297929493  0.3342915773613932  0.7025874955644934  1.0000
  O   O1        1.0  0.3111634298512324  0.8340520360725141  0.6845005350386074  1.0000
  Ba  Ba3       1.0  0.8115060460513407  0.8464374306349296  0.7028792698651554  1.0000
  O   O2        1.0  0.4779421792474226  0.0005776402530726088  0.46552427092511234  1.0000
  Ba  Ba4       1.0  0.1303295147243445  0.1443918716360152  0.22562155732722822  1.0000
  O   O3        1.0  0.9669749632812616  0.48968185160627925  0.46616963359494384  1.0000
  O   O4        1.0  0.6253917320365496  0.14765585441959353  0.2198595180905342  1.0000
  O   O5        1.0  0.0749384861388359  0.22304146913505893  0.9154537995244073  1.0000
  Ti  Ti1       1.0  0.9981474329941673  0.52065610932428  0.9916580872203687  1.0000
  O   O6        1.0  0.4713587773793196  0.48796207803564695  0.4595485092942983  1.0000
  Ti  Ti2       1.0  0.22446471501542456  0.7472294285449266  0.4773914040656414  1.0000
  Ti  Ti3       1.0  0.7081151820409227  0.230770949870591  0.42744380927507153  1.0000
  O   O7        1.0  0.7006722390055247  0.5977888804183892  0.9152111354845334  1.0000
  O   O8        1.0  0.11764456519544961  0.6401589886315169  0.20479928516881546  1.0000
  O   O9        1.0  0.965404226900375  0.9940875488724318  0.4596451499806829  1.0000
