data_image531
_chemical_formula_structural       BaTiO2TiBaOBaOBaO4
_chemical_formula_sum              "Ba4 Ti2 O8"
_cell_length_a       4.012313464482999
_cell_length_b       6.013065341421728
_cell_length_c       9.383779525756838
_cell_angle_alpha    90.00189446676033
_cell_angle_beta     102.28713669956457
_cell_angle_gamma    89.99783733451883

_space_group_name_H-M_alt    "P 1"
_space_group_IT_number       1

loop_
  _space_group_symop_operation_xyz
  'x, y, z'

loop_
  _atom_site_type_symbol
  _atom_site_label
  _atom_site_symmetry_multiplicity
  _atom_site_fract_x
  _atom_site_fract_y
  _atom_site_fract_z
  _atom_site_occupancy
  Ba  Ba1       1.0  0.390927163241091  0.8107589211964957  0.03974725818460023  1.0000
  Ti  Ti1       1.0  0.7476373281229359  0.8107774004828487  0.75174474945479  1.0000
  O   O1        1.0  0.6684284936947618  0.5606848302246191  0.5939821369982377  1.0000
  O   O2        1.0  0.24204400461435832  0.8107120139281571  0.7424322598042437  1.0000
  Ti  Ti2       1.0  0.5884142652632558  0.3107669945232473  0.43628991254931576  1.0000
  Ba  Ba2       1.0  0.24302781209350993  0.3107173403293517  0.7437937146714964  1.0000
  O   O3        1.0  0.8256089680426631  0.586410884883432  0.9095069523269766  1.0000
  Ba  Ba3       1.0  0.9457398336691106  0.3107529530705821  0.14825442866635843  1.0000
  O   O4        1.0  0.5112431970881832  0.5351091532209562  0.27852792385032177  1.0000
  Ba  Ba4       1.0  0.09347647722796103  0.8107930099702464  0.4442276713510776  1.0000
  O   O5        1.0  0.6684376486442589  0.06070497465958388  0.5939816319096866  1.0000
  O   O6        1.0  0.8255693836949596  0.035075314030999685  0.9094941679351689  1.0000
  O   O7        1.0  0.09513795234054125  0.31073237139246873  0.4455759163166688  1.0000
  O   O8        1.0  0.5112505715356731  0.0864570405217165  0.2784726634851205  1.0000
