data_image702
_chemical_formula_structural       Ba2TiBaTiO6
_chemical_formula_sum              "Ba3 Ti2 O6"
_cell_length_a       4.035707396351877
_cell_length_b       4.034767651079599
_cell_length_c       11.30571174621582
_cell_angle_alpha    100.2506688103928
_cell_angle_beta     100.22731639379802
_cell_angle_gamma    89.9103083168076

_space_group_name_H-M_alt    "P 1"
_space_group_IT_number       1

loop_
  _space_group_symop_operation_xyz
  'x, y, z'

loop_
  _atom_site_type_symbol
  _atom_site_label
  _atom_site_symmetry_multiplicity
  _atom_site_fract_x
  _atom_site_fract_y
  _atom_site_fract_z
  _atom_site_occupancy
  Ba  Ba1       1.0  0.11939943177089356  0.825687982289941  0.07485391974083087  1.0000
  Ba  Ba2       1.0  0.7537275201856539  0.4598761007981168  0.34241184819326687  1.0000
  Ti  Ti1       1.0  0.5373449057076262  0.2435342102169608  0.9104167742453426  1.0000
  Ba  Ba3       1.0  0.9365817413032628  0.6426923789294164  0.708587165876565  1.0000
  Ti  Ti2       1.0  0.33584463895824057  0.04198265384829731  0.5067914841332728  1.0000
  O   O1        1.0  0.0283330623528204  0.23441305902271126  0.8922885462584553  1.0000
  O   O2        1.0  0.5282057001116419  0.7344939809957901  0.8922616840528177  1.0000
  O   O3        1.0  0.6254076230445851  0.33173689801264006  0.08690868072499994  1.0000
  O   O4        1.0  0.24774937559173604  0.9538155955866239  0.3302971742583864  1.0000
  O   O5        1.0  0.3450358003338782  0.5510475986129202  0.5249547583884874  1.0000
  O   O6        1.0  0.844853992227908  0.051085905691403394  0.5248695978942285  1.0000
