data_image929
_chemical_formula_structural       BaTiO2
_chemical_formula_sum              "Ba1 Ti1 O2"
_cell_length_a       3.2762866540973365
_cell_length_b       3.2778384503112825
_cell_length_c       6.471560478210448
_cell_angle_alpha    75.32263536227013
_cell_angle_beta     75.31778686415345
_cell_angle_gamma    60.02214100498535

_space_group_name_H-M_alt    "P 1"
_space_group_IT_number       1

loop_
  _space_group_symop_operation_xyz
  'x, y, z'

loop_
  _atom_site_type_symbol
  _atom_site_label
  _atom_site_symmetry_multiplicity
  _atom_site_fract_x
  _atom_site_fract_y
  _atom_site_fract_z
  _atom_site_occupancy
  Ba  Ba1       1.0  0.21443917293524004  0.1584789319279908  0.6159700672517046  1.0000
  Ti  Ti1       1.0  0.3852486146942914  0.3293736015536883  0.10512998196427802  1.0000
  O   O1        1.0  0.9960498877303847  0.9400421264020136  0.2726513883888929  1.0000
  O   O2        1.0  0.7723765111297212  0.7164596894689584  0.9434684130250854  1.0000
