data_image175
_chemical_formula_structural       Ba2TiO3TiOBaO3
_chemical_formula_sum              "Ba3 Ti2 O7"
_cell_length_a       3.9810671981374277
_cell_length_b       4.049364661680274
_cell_length_c       11.560300827026367
_cell_angle_alpha    100.011925563693
_cell_angle_beta     89.99462714555847
_cell_angle_gamma    89.94062766723458

_space_group_name_H-M_alt    "P 1"
_space_group_IT_number       1

loop_
  _space_group_symop_operation_xyz
  'x, y, z'

loop_
  _atom_site_type_symbol
  _atom_site_label
  _atom_site_symmetry_multiplicity
  _atom_site_fract_x
  _atom_site_fract_y
  _atom_site_fract_z
  _atom_site_occupancy
  Ba  Ba1       1.0  0.7092677115246907  0.9466195911657531  0.7109190103624109  1.0000
  Ba  Ba2       1.0  0.7085137982123526  0.5997247761625006  0.016091028174943397  1.0000
  Ti  Ti1       1.0  0.2085315846570089  0.18114003616090485  0.18220297828631146  1.0000
  O   O1        1.0  0.2090323716686947  0.4486791567021808  0.7161913340363372  1.0000
  O   O2        1.0  0.20867961613292305  0.6841682063698238  0.18234037176618892  1.0000
  O   O3        1.0  0.20890968065018173  0.09799662955490113  0.010701757689842972  1.0000
  Ti  Ti2       1.0  0.20941269876701246  0.3643363811941739  0.5448317536371511  1.0000
  O   O4        1.0  0.2090169812219622  0.2734617423950667  0.3634910258322798  1.0000
  Ba  Ba3       1.0  0.7090303710436269  0.773232173227957  0.36342984525674965  1.0000
  O   O5        1.0  0.708849122423657  0.1837961248101645  0.18306174725466726  1.0000
  O   O6        1.0  0.7090785050499017  0.3631728712091003  0.5439848894185774  1.0000
  O   O7        1.0  0.20917309326869463  0.8630794942419373  0.5443943229186823  1.0000
