data_image28
_chemical_formula_structural       BaO3BaTi2O4BaTi2OBaO2
_chemical_formula_sum              "Ba4 O10 Ti4"
_cell_length_a       4.046646174614263
_cell_length_b       4.045115976549849
_cell_length_c       16.719871520996094
_cell_angle_alpha    89.96006638730775
_cell_angle_beta     89.97058487739119
_cell_angle_gamma    89.89666173753572

_space_group_name_H-M_alt    "P 1"
_space_group_IT_number       1

loop_
  _space_group_symop_operation_xyz
  'x, y, z'

loop_
  _atom_site_type_symbol
  _atom_site_label
  _atom_site_symmetry_multiplicity
  _atom_site_fract_x
  _atom_site_fract_y
  _atom_site_fract_z
  _atom_site_occupancy
  Ba  Ba1       1.0  0.5820212508876074  0.5658806321846732  0.981112363924064  1.0000
  O   O1        1.0  0.08849989349436205  0.5729027404284825  0.6015645807777057  1.0000
  O   O2        1.0  0.08598435462821152  0.5699272159976634  0.10256655367553952  1.0000
  O   O3        1.0  0.08613295873528751  0.069913585228038  0.23064759508582341  1.0000
  Ba  Ba2       1.0  0.5860565015858691  0.5698455632731142  0.7312687135990286  1.0000
  Ti  Ti1       1.0  0.06963712059316783  0.053878224220326607  0.861075115504717  1.0000
  Ti  Ti2       1.0  0.08557341578125129  0.06953103262653719  0.1037865436600467  1.0000
  O   O4        1.0  0.08984214669974881  0.07370871135263582  0.7239523036212102  1.0000
  O   O5        1.0  0.08755326613203798  0.07136531951801157  0.9732995426020847  1.0000
  O   O6        1.0  0.6028157911873929  0.07878205232567001  0.8516102359750279  1.0000
  O   O7        1.0  0.0877919349014444  0.07166633365324755  0.45979121761269365  1.0000
  Ba  Ba3       1.0  0.5877566208885079  0.571672695975678  0.4879703005489095  1.0000
  Ti  Ti3       1.0  0.08695402676813196  0.07070565993661639  0.3483315458430239  1.0000
  Ti  Ti4       1.0  0.08712331127216821  0.07122418432828008  0.6127652725129115  1.0000
  O   O8        1.0  0.09528777896252734  0.5861789577080397  0.8516079639036289  1.0000
  Ba  Ba4       1.0  0.5861530555640937  0.56997817368054  0.2172320441432073  1.0000
  O   O9        1.0  0.5891993770159046  0.07233682140719729  0.601588459300724  1.0000
  O   O10       1.0  0.5861088891466483  0.06989434895221731  0.10256628444965907  1.0000
