data_image692
_chemical_formula_structural       Ba2TiO3TiO3
_chemical_formula_sum              "Ba2 Ti2 O6"
_cell_length_a       3.9334551109831244
_cell_length_b       3.928694632225233
_cell_length_c       10.151010513305664
_cell_angle_alpha    101.16652862941612
_cell_angle_beta     101.18530456317818
_cell_angle_gamma    89.99195669055902

_space_group_name_H-M_alt    "P 1"
_space_group_IT_number       1

loop_
  _space_group_symop_operation_xyz
  'x, y, z'

loop_
  _atom_site_type_symbol
  _atom_site_label
  _atom_site_symmetry_multiplicity
  _atom_site_fract_x
  _atom_site_fract_y
  _atom_site_fract_z
  _atom_site_occupancy
  Ba  Ba1       1.0  0.6349573451996131  0.25356765553891186  0.45485658842399634  1.0000
  Ba  Ba2       1.0  0.8559592419287391  0.4844741641300542  0.9046074211700198  1.0000
  Ti  Ti1       1.0  0.04166468461538353  0.6436336749190332  0.25152183295406577  1.0000
  O   O1        1.0  0.7409773396148637  0.8663904201483681  0.6720898675337867  1.0000
  O   O2        1.0  0.24078586023316845  0.36604556139539945  0.6718630401228737  1.0000
  O   O3        1.0  0.4945688018846746  0.6547411210786476  0.21757712084113656  1.0000
  Ti  Ti2       1.0  0.24963955932557017  0.8750104443679981  0.6894533904875225  1.0000
  O   O4        1.0  0.9964212266174838  0.15591001160833948  0.21814451296355686  1.0000
  O   O5        1.0  0.12492601871466397  0.7480749047045119  0.4393272727663142  1.0000
  O   O6        1.0  0.3430669897517327  0.9698101332365916  0.877406543415679  1.0000
