data_image533
_chemical_formula_structural       BaOBaTiOTiO4TiBaO5Ti
_chemical_formula_sum              "Ba3 O11 Ti4"
_cell_length_a       3.9921841911715448
_cell_length_b       4.252552380246632
_cell_length_c       14.305997848510742
_cell_angle_alpha    90.8440704981143
_cell_angle_beta     98.08755455482411
_cell_angle_gamma    89.93777264724838

_space_group_name_H-M_alt    "P 1"
_space_group_IT_number       1

loop_
  _space_group_symop_operation_xyz
  'x, y, z'

loop_
  _atom_site_type_symbol
  _atom_site_label
  _atom_site_symmetry_multiplicity
  _atom_site_fract_x
  _atom_site_fract_y
  _atom_site_fract_z
  _atom_site_occupancy
  Ba  Ba1       1.0  0.04497128545138746  0.6215530059082913  0.40037905806455004  1.0000
  O   O1        1.0  0.8928475980567749  0.6412840534704827  0.0983956473055439  1.0000
  Ba  Ba2       1.0  0.1898457497829448  0.6434580243519886  0.6848663616386095  1.0000
  Ti  Ti1       1.0  0.6293402391217989  0.11556888119409572  0.5437152891029287  1.0000
  O   O2        1.0  0.4802076464988936  0.68039339746149  0.27308243480627686  1.0000
  Ti  Ti2       1.0  0.769565622826622  0.13408110271077783  0.8254937434775735  1.0000
  O   O3        1.0  0.24721706332384033  0.18546097441018128  0.8276782518670563  1.0000
  O   O4        1.0  0.9675141183643227  0.15860593287623853  0.2496541354022311  1.0000
  O   O5        1.0  0.7548135151130767  0.7061622145785301  0.8252005935536271  1.0000
  O   O6        1.0  0.6802632829328805  0.17322565322436595  0.6852358492562101  1.0000
  Ti  Ti3       1.0  0.8966358966093722  0.2338097693234709  0.1069340950328847  1.0000
  Ba  Ba3       1.0  0.3299761694935192  0.6852506175050416  0.9699068711487201  1.0000
  O   O7        1.0  0.10499111435671137  0.1658990556934832  0.5434701784507031  1.0000
  O   O8        1.0  0.8235920468522365  0.17104335812589633  0.9690543060533865  1.0000
  O   O9        1.0  0.6142525771828042  0.6892700934539524  0.5442610862623454  1.0000
  O   O10       1.0  0.4031837108475927  0.16186521783503077  0.12149031161748984  1.0000
  O   O11       1.0  0.540814598144355  0.15949731425847663  0.40206690607363793  1.0000
  Ti  Ti4       1.0  0.47471624823698044  0.08676542817216705  0.2634023546656489  1.0000
