data_image960
_chemical_formula_structural       BaO2TiOTiBaO5Ba
_chemical_formula_sum              "Ba3 O8 Ti2"
_cell_length_a       5.774903515344585
_cell_length_b       6.355371404040183
_cell_length_c       6.467794418334961
_cell_angle_alpha    72.92806039337229
_cell_angle_beta     68.1412454624387
_cell_angle_gamma    71.40851299869331

_space_group_name_H-M_alt    "P 1"
_space_group_IT_number       1

loop_
  _space_group_symop_operation_xyz
  'x, y, z'

loop_
  _atom_site_type_symbol
  _atom_site_label
  _atom_site_symmetry_multiplicity
  _atom_site_fract_x
  _atom_site_fract_y
  _atom_site_fract_z
  _atom_site_occupancy
  Ba  Ba1       1.0  0.3467995556090922  0.12527507636907143  0.19658800029734233  1.0000
  O   O1        1.0  0.6239904773167824  0.9308251856371572  0.8288484520494482  1.0000
  O   O2        1.0  0.2713427466311002  0.2907787631379706  0.6498655494774614  1.0000
  Ti  Ti1       1.0  0.7643277291529648  0.0014866447024062257  0.507507881496526  1.0000
  O   O3        1.0  0.7739107763054212  0.3193198245258538  0.4825596018314737  1.0000
  Ti  Ti2       1.0  0.4681740836835084  0.5374658055703294  0.4575642632775818  1.0000
  Ba  Ba2       1.0  0.1447624283636722  0.8545287429135082  0.8999425185032969  1.0000
  O   O4        1.0  0.5657334740501635  0.7810812493185157  0.4927355175005527  1.0000
  O   O5        1.0  0.284193640522387  0.4194637916432955  0.8022322234535273  1.0000
  O   O6        1.0  0.41880885099155535  0.5544518436111335  0.1938066850665278  1.0000
  O   O7        1.0  0.8224879338288305  0.094828594304923  0.1793477875303331  1.0000
  O   O8        1.0  0.07708574609832168  0.8222287393505463  0.5098989062109053  1.0000
  Ba  Ba3       1.0  0.7885998511173092  0.4811573465789228  0.8241788689695975  1.0000
