data_image253
_chemical_formula_structural       Ba2TiBa2OTiBaO4
_chemical_formula_sum              "Ba5 Ti2 O5"
_cell_length_a       3.6786376582645506
_cell_length_b       5.663234469799605
_cell_length_c       12.698325157165527
_cell_angle_alpha    80.86773880622353
_cell_angle_beta     89.91584091251882
_cell_angle_gamma    89.86423200752783

_space_group_name_H-M_alt    "P 1"
_space_group_IT_number       1

loop_
  _space_group_symop_operation_xyz
  'x, y, z'

loop_
  _atom_site_type_symbol
  _atom_site_label
  _atom_site_symmetry_multiplicity
  _atom_site_fract_x
  _atom_site_fract_y
  _atom_site_fract_z
  _atom_site_occupancy
  Ba  Ba1       1.0  0.7841594284370468  0.5550733747605643  0.6866467596474338  1.0000
  Ba  Ba2       1.0  0.28376075464878575  0.8472488229710513  0.15548823262101122  1.0000
  Ti  Ti1       1.0  0.7840986441076069  0.2941364276685784  0.2758274638089103  1.0000
  Ba  Ba3       1.0  0.28381917470230134  0.9879615568036093  0.8403127419191998  1.0000
  Ba  Ba4       1.0  0.28388687666215934  0.12860448736365407  0.5251452341354516  1.0000
  O   O1        1.0  0.783588267758593  0.917644269593743  0.9976784182120229  1.0000
  Ti  Ti2       1.0  0.783553129507874  0.6816843898436623  0.4048356159904884  1.0000
  Ba  Ba5       1.0  0.783476421502157  0.4208495914568788  0.9939679567526578  1.0000
  O   O2        1.0  0.28430432514513315  0.30516534454599553  0.21893922601224386  1.0000
  O   O3        1.0  0.784054441030512  0.05816539780820787  0.6829440800523765  1.0000
  O   O4        1.0  0.28334746975592506  0.6706329841910417  0.46174115565743995  1.0000
  O   O5        1.0  0.2838161859016163  0.48795869854483126  0.8403056503761512  1.0000
