data_image745
_chemical_formula_structural       BaO4Ti
_chemical_formula_sum              "Ba1 O4 Ti1"
_cell_length_a       3.896364072333267
_cell_length_b       3.9859674043408746
_cell_length_c       6.632281303405761
_cell_angle_alpha    107.42523416955491
_cell_angle_beta     90.0677169990799
_cell_angle_gamma    90.03785541056004

_space_group_name_H-M_alt    "P 1"
_space_group_IT_number       1

loop_
  _space_group_symop_operation_xyz
  'x, y, z'

loop_
  _atom_site_type_symbol
  _atom_site_label
  _atom_site_symmetry_multiplicity
  _atom_site_fract_x
  _atom_site_fract_y
  _atom_site_fract_z
  _atom_site_occupancy
  Ba  Ba1       1.0  0.24819774562857372  0.3671089382174984  0.3326461740923798  1.0000
  O   O1        1.0  0.7478994246777506  0.22015410863175078  0.04202706179368523  1.0000
  O   O2        1.0  0.7479314997457877  0.5693857069704339  0.7383653152616392  1.0000
  O   O3        1.0  0.24790667389492732  0.0617986329077353  0.7225501839068691  1.0000
  O   O4        1.0  0.7476293442415939  0.9155165827108408  0.42999517780441987  1.0000
  Ti  Ti1       1.0  0.7481338875140442  0.07551467268236621  0.7506494741419142  1.0000
