data_image4
_chemical_formula_structural       BaO2BaTiO3Ti
_chemical_formula_sum              "Ba2 O5 Ti2"
_cell_length_a       3.9579126329236645
_cell_length_b       5.836566086923972
_cell_length_c       5.838968753814696
_cell_angle_alpha    92.1132016693976
_cell_angle_beta     89.96679412628151
_cell_angle_gamma    89.95560627452402

_space_group_name_H-M_alt    "P 1"
_space_group_IT_number       1

loop_
  _space_group_symop_operation_xyz
  'x, y, z'

loop_
  _atom_site_type_symbol
  _atom_site_label
  _atom_site_symmetry_multiplicity
  _atom_site_fract_x
  _atom_site_fract_y
  _atom_site_fract_z
  _atom_site_occupancy
  Ba  Ba1       1.0  0.15712974165269808  0.15699744079998848  0.9414680049069116  1.0000
  O   O1        1.0  0.656986712916079  0.40595133022797814  0.690543647576995  1.0000
  O   O2        1.0  0.1569627676374447  0.6671733548963056  0.9293429313679028  1.0000
  Ba  Ba2       1.0  0.15683589071930903  0.6550559162729803  0.4395837362585957  1.0000
  Ti  Ti1       1.0  0.6569626885077259  0.6385560055630054  0.9579005357631974  1.0000
  O   O3        1.0  0.1569882099745472  0.14479596250252783  0.45167207745124216  1.0000
  O   O4        1.0  0.6569857846329176  0.40602574956607956  0.19052868554634844  1.0000
  O   O5        1.0  0.6569964909839271  0.9060771897908404  0.1904540295056456  1.0000
  Ti  Ti2       1.0  0.6569756424034532  0.17344344691662542  0.4229606700945743  1.0000
