data_image888
_chemical_formula_structural       TiBaO2TiBaO4
_chemical_formula_sum              "Ti2 Ba2 O6"
_cell_length_a       4.115510954990168
_cell_length_b       4.119459371978872
_cell_length_c       7.940866470336913
_cell_angle_alpha    90.19191032647628
_cell_angle_beta     90.21010595871088
_cell_angle_gamma    89.94922687839619

_space_group_name_H-M_alt    "P 1"
_space_group_IT_number       1

loop_
  _space_group_symop_operation_xyz
  'x, y, z'

loop_
  _atom_site_type_symbol
  _atom_site_label
  _atom_site_symmetry_multiplicity
  _atom_site_fract_x
  _atom_site_fract_y
  _atom_site_fract_z
  _atom_site_occupancy
  Ti  Ti1       1.0  0.5303738070569333  0.893409503447255  0.6740947971699329  1.0000
  Ba  Ba1       1.0  0.047365126486775905  0.41026720138900624  0.924231741766768  1.0000
  O   O1        1.0  0.0805244207654481  0.9256535199125447  0.6741349288049253  1.0000
  O   O2        1.0  0.08089965825640834  0.9262577651226458  0.1743371942675853  1.0000
  Ti  Ti2       1.0  0.530775306442852  0.8936382291134216  0.17417090860462955  1.0000
  Ba  Ba2       1.0  0.04754535923173724  0.4102498604958827  0.4243101779318944  1.0000
  O   O3        1.0  0.5702930462184874  0.9334973247548235  0.42455949764772677  1.0000
  O   O4        1.0  0.5700613710768831  0.9334498364139466  0.9244883804275236  1.0000
  O   O5        1.0  0.5621437159241641  0.44395747518711  0.6742499082266237  1.0000
  O   O6        1.0  0.5628354317242568  0.4445009736842349  0.17433021153843858  1.0000
