data_image246
_chemical_formula_structural       BaTiO3Ba
_chemical_formula_sum              "Ba2 Ti1 O3"
_cell_length_a       3.963114587911878
_cell_length_b       3.9598934422235117
_cell_length_c       9.11053466796875
_cell_angle_alpha    102.3472426679265
_cell_angle_beta     102.50168116477283
_cell_angle_gamma    90.0716034754219

_space_group_name_H-M_alt    "P 1"
_space_group_IT_number       1

loop_
  _space_group_symop_operation_xyz
  'x, y, z'

loop_
  _atom_site_type_symbol
  _atom_site_label
  _atom_site_symmetry_multiplicity
  _atom_site_fract_x
  _atom_site_fract_y
  _atom_site_fract_z
  _atom_site_occupancy
  Ba  Ba1       1.0  0.14827745491860309  0.014425246294418223  0.7436608649237474  1.0000
  Ti  Ti1       1.0  0.5248122378736462  0.3921861164043632  0.496160281229023  1.0000
  O   O1        1.0  0.4143765423908245  0.28297570624219637  0.27497234894944866  1.0000
  O   O2        1.0  0.034908338440673876  0.40223301511838055  0.5164652096500296  1.0000
  O   O3        1.0  0.5349928825390503  0.9023033565157774  0.5167396050790944  1.0000
  Ba  Ba2       1.0  0.9101011717198425  0.7786920265678303  0.2663968458334348  1.0000
