data_image119
_chemical_formula_structural       BaO2TiO
_chemical_formula_sum              "Ba1 O3 Ti1"
_cell_length_a       3.9785694162819825
_cell_length_b       3.9823100023766194
_cell_length_c       4.377280235290527
_cell_angle_alpha    89.66367032015174
_cell_angle_beta     89.71350338367134
_cell_angle_gamma    89.88000974413612

_space_group_name_H-M_alt    "P 1"
_space_group_IT_number       1

loop_
  _space_group_symop_operation_xyz
  'x, y, z'

loop_
  _atom_site_type_symbol
  _atom_site_label
  _atom_site_symmetry_multiplicity
  _atom_site_fract_x
  _atom_site_fract_y
  _atom_site_fract_z
  _atom_site_occupancy
  Ba  Ba1       1.0  0.8903914176249647  0.5328291528920562  0.6519615300217984  1.0000
  O   O1        1.0  0.379574769699906  0.5209687215809518  0.11165484531806659  1.0000
  O   O2        1.0  0.3864616948533796  0.028927724825992363  0.5821626131917093  1.0000
  Ti  Ti1       1.0  0.399100848540091  0.041467127366380016  0.16881978560229646  1.0000
  O   O3        1.0  0.8776191686556268  0.023055050613090777  0.11121246003676458  1.0000
