data_image476
_chemical_formula_structural       TiO2Ba
_chemical_formula_sum              "Ti1 O2 Ba1"
_cell_length_a       3.3105044398786916
_cell_length_b       3.310708393701169
_cell_length_c       6.268747329711915
_cell_angle_alpha    74.73574561023423
_cell_angle_beta     74.73336759038568
_cell_angle_gamma    60.056433853719405

_space_group_name_H-M_alt    "P 1"
_space_group_IT_number       1

loop_
  _space_group_symop_operation_xyz
  'x, y, z'

loop_
  _atom_site_type_symbol
  _atom_site_label
  _atom_site_symmetry_multiplicity
  _atom_site_fract_x
  _atom_site_fract_y
  _atom_site_fract_z
  _atom_site_occupancy
  Ti  Ti1       1.0  0.6686251587305206  0.7057762332101047  0.25127168555349694  1.0000
  O   O1        1.0  0.9467685366780554  0.9839006612882623  0.4168206440694823  1.0000
  O   O2        1.0  0.39043405748008747  0.4275503969089878  0.0857357577252438  1.0000
  Ba  Ba1       1.0  0.16852143397196676  0.20559891879892137  0.7512725630595746  1.0000
