data_image543
_chemical_formula_structural       BaTiBaO3Ba2O2TiO3
_chemical_formula_sum              "Ba4 Ti2 O8"
_cell_length_a       6.138378823601241
_cell_length_b       6.146645688424897
_cell_length_c       8.050753593444824
_cell_angle_alpha    89.87173839221101
_cell_angle_beta     89.82444615583951
_cell_angle_gamma    63.57442956126648

_space_group_name_H-M_alt    "P 1"
_space_group_IT_number       1

loop_
  _space_group_symop_operation_xyz
  'x, y, z'

loop_
  _atom_site_type_symbol
  _atom_site_label
  _atom_site_symmetry_multiplicity
  _atom_site_fract_x
  _atom_site_fract_y
  _atom_site_fract_z
  _atom_site_occupancy
  Ba  Ba1       1.0  0.8338540976084805  0.21424594439865627  0.6464013597433057  1.0000
  Ti  Ti1       1.0  0.549156677120761  0.8341598089742036  0.6462841920978958  1.0000
  Ba  Ba2       1.0  0.17310307946881046  0.5072851579297509  0.8963219046281151  1.0000
  O   O1        1.0  0.9995976107796065  0.17742001500739546  0.9649828622181257  1.0000
  O   O2        1.0  0.9994951046884526  0.17723862562519294  0.3271918926930345  1.0000
  O   O3        1.0  0.5030433215911271  0.6811721939093947  0.4654286678722327  1.0000
  Ba  Ba3       1.0  0.17324633883613946  0.507047586197499  0.3962625241584542  1.0000
  Ba  Ba4       1.0  0.46582508064537725  0.8470281567295547  0.146301140966627  1.0000
  O   O4        1.0  0.38222665104733305  0.17200765329589837  0.6461937064711413  1.0000
  O   O5        1.0  0.5026500294658822  0.6810579189413409  0.8275841125035558  1.0000
  Ti  Ti2       1.0  0.8463625652423138  0.13112085121929734  0.1463522250896655  1.0000
  O   O6        1.0  0.9174120406146786  0.8039142208678792  0.14635650594892916  1.0000
  O   O7        1.0  0.5081442893137637  0.29763546694157433  0.14635202020175414  1.0000
  O   O8        1.0  0.8767073226913188  0.7635264394537915  0.646347710392167  1.0000
