data_image134
_chemical_formula_structural       OBa2TiO2BaOTiO3TiO3
_chemical_formula_sum              "O10 Ba3 Ti3"
_cell_length_a       3.9175378184786394
_cell_length_b       3.9195573928985494
_cell_length_c       15.406429290771484
_cell_angle_alpha    89.98998261736499
_cell_angle_beta     90.0426023970244
_cell_angle_gamma    90.0455940201247

_space_group_name_H-M_alt    "P 1"
_space_group_IT_number       1

loop_
  _space_group_symop_operation_xyz
  'x, y, z'

loop_
  _atom_site_type_symbol
  _atom_site_label
  _atom_site_symmetry_multiplicity
  _atom_site_fract_x
  _atom_site_fract_y
  _atom_site_fract_z
  _atom_site_occupancy
  O   O1        1.0  0.3706296812945909  0.45378376108842977  0.43366775236261373  1.0000
  Ba  Ba1       1.0  0.8772430038452524  0.45249320941314625  0.859591138145915  1.0000
  Ba  Ba2       1.0  0.760512179755408  0.45270232447915554  0.21581311893788607  1.0000
  Ti  Ti1       1.0  0.3615041765735592  0.9538789394685079  0.4121685430120695  1.0000
  O   O2        1.0  0.3902158160975156  0.953325844531244  0.12758255782560046  1.0000
  O   O3        1.0  0.36976987599417754  0.9531844512727019  0.5780811060490241  1.0000
  Ba  Ba3       1.0  0.8692338434974728  0.45326369037579145  0.5644054040862397  1.0000
  O   O4        1.0  0.8681535894591803  0.9537738759469021  0.43414526347873206  1.0000
  Ti  Ti2       1.0  0.3780178325309606  0.95309175500877  0.012782224595597573  1.0000
  O   O5        1.0  0.36681392701953736  0.9541755761749958  0.296668680302829  1.0000
  O   O6        1.0  0.8809794720264343  0.9522599777498887  0.9868749260966765  1.0000
  O   O7        1.0  0.3728683606729771  0.4525675740560695  0.7057172506388775  1.0000
  Ti  Ti3       1.0  0.37350362874882226  0.9525691310111776  0.712636889923507  1.0000
  O   O8        1.0  0.37561283171179055  0.9525030785302757  0.8336696740627622  1.0000
  O   O9        1.0  0.38191037650344334  0.4524407666211647  0.9876475720200464  1.0000
  O   O10       1.0  0.873008970698375  0.9523693555379805  0.7056509238625875  1.0000
