data_image258
_chemical_formula_structural       OBa2O2TiOTiBaO2BaTiO5TiO
_chemical_formula_sum              "O12 Ba4 Ti4"
_cell_length_a       4.269284725628708
_cell_length_b       7.978971090966135
_cell_length_c       8.922926902770996
_cell_angle_alpha    116.63131215763734
_cell_angle_beta     90.00082212721063
_cell_angle_gamma    89.98418378657276

_space_group_name_H-M_alt    "P 1"
_space_group_IT_number       1

loop_
  _space_group_symop_operation_xyz
  'x, y, z'

loop_
  _atom_site_type_symbol
  _atom_site_label
  _atom_site_symmetry_multiplicity
  _atom_site_fract_x
  _atom_site_fract_y
  _atom_site_fract_z
  _atom_site_occupancy
  O   O1        1.0  0.6164733607736759  0.8261222642548217  0.8886622016341258  1.0000
  Ba  Ba1       1.0  0.6725054122514547  0.9511998861036637  0.6387519791918073  1.0000
  Ba  Ba2       1.0  0.6725563015882139  0.7012501082169059  0.1387079391426694  1.0000
  O   O2        1.0  0.1403141090505723  0.20142089984734168  0.6388039863117462  1.0000
  O   O3        1.0  0.14048964205632483  0.3264854500335369  0.38873290801593563  1.0000
  Ti  Ti1       1.0  0.1912075578842139  0.32610473686942226  0.888697148739744  1.0000
  O   O4        1.0  0.14069299210644481  0.8265790113603688  0.3888655924388749  1.0000
  Ti  Ti2       1.0  0.19128463077712507  0.5759671713636754  0.3886472112791272  1.0000
  Ba  Ba3       1.0  0.6725256186696916  0.20113876104315834  0.1386158075656363  1.0000
  O   O5        1.0  0.6163595921569306  0.5763695268736148  0.38864295868926235  1.0000
  O   O6        1.0  0.6164176771484362  0.32616866382104315  0.8888321229267352  1.0000
  Ba  Ba4       1.0  0.6724438775032603  0.45130042755015193  0.6389285193071034  1.0000
  Ti  Ti3       1.0  0.1913636252623915  0.0761106906599729  0.388743721313347  1.0000
  O   O7        1.0  0.14093112914669734  0.07630831460480864  0.8886703073025206  1.0000
  O   O8        1.0  0.1402624196360679  0.45123111803368054  0.13879158058686322  1.0000
  O   O9        1.0  0.6165525776270903  0.07650971707449686  0.3888358249754749  1.0000
  O   O10       1.0  0.1412016821373765  0.5763301313976038  0.8888352619440637  1.0000
  O   O11       1.0  0.14064202773208118  0.7013501166535994  0.6387769028757487  1.0000
  Ti  Ti4       1.0  0.19115433887608863  0.826126860010084  0.888589437467913  1.0000
  O   O12       1.0  0.14100089936301125  0.9514580518723632  0.1386858404073403  1.0000
