data_image1088
_chemical_formula_structural       OTiBaTiBaO
_chemical_formula_sum              "O2 Ti2 Ba2"
_cell_length_a       4.410681348643079
_cell_length_b       4.4083596551863655
_cell_length_c       10.910332679748535
_cell_angle_alpha    90.11697632631105
_cell_angle_beta     101.6841952649483
_cell_angle_gamma    120.00114219936326

_space_group_name_H-M_alt    "P 1"
_space_group_IT_number       1

loop_
  _space_group_symop_operation_xyz
  'x, y, z'

loop_
  _atom_site_type_symbol
  _atom_site_label
  _atom_site_symmetry_multiplicity
  _atom_site_fract_x
  _atom_site_fract_y
  _atom_site_fract_z
  _atom_site_occupancy
  O   O1        1.0  0.575727782208483  0.051404313476260545  0.7257426242746418  1.0000
  Ti  Ti1       1.0  0.05809776517161564  0.2913677629602347  0.45018753302656084  1.0000
  Ba  Ba1       1.0  0.5653793309126021  0.5438471712792834  0.21227364654256245  1.0000
  Ti  Ti2       1.0  0.46014280690004117  0.9928820860547982  0.5527281758067626  1.0000
  Ba  Ba2       1.0  0.9527995561138222  0.7403603649281271  0.7906384233998087  1.0000
  O   O2        1.0  0.9424361717909051  0.23280002786888535  0.27716193450303495  1.0000
