data_image299
_chemical_formula_structural       BaOTiO3
_chemical_formula_sum              "Ba1 O4 Ti1"
_cell_length_a       3.9559469718975233
_cell_length_b       4.186282814770747
_cell_length_c       5.158773422241211
_cell_angle_alpha    96.0164361394951
_cell_angle_beta     90.03562877004192
_cell_angle_gamma    89.95756654033299

_space_group_name_H-M_alt    "P 1"
_space_group_IT_number       1

loop_
  _space_group_symop_operation_xyz
  'x, y, z'

loop_
  _atom_site_type_symbol
  _atom_site_label
  _atom_site_symmetry_multiplicity
  _atom_site_fract_x
  _atom_site_fract_y
  _atom_site_fract_z
  _atom_site_occupancy
  Ba  Ba1       1.0  0.9870728919582051  0.7338836240806078  0.48866653662707354  1.0000
  O   O1        1.0  0.9748534349124405  0.16242437549881616  0.11789254560324937  1.0000
  Ti  Ti1       1.0  0.5089244619139087  0.21824478899387126  0.08539368462600957  1.0000
  O   O2        1.0  0.48381759346208053  0.07344224400662139  0.7090342764058543  1.0000
  O   O3        1.0  0.48449221319096586  0.6462922071510676  0.10925693431926989  1.0000
  O   O4        1.0  0.4797053856804828  0.29298039878209553  0.5057678547995367  1.0000
