data_image928
_chemical_formula_structural       BaO3BaTiO
_chemical_formula_sum              "Ba2 O4 Ti1"
_cell_length_a       4.045768610157114
_cell_length_b       4.046018105785774
_cell_length_c       7.334509372711182
_cell_angle_alpha    106.00124931912349
_cell_angle_beta     106.02830997619655
_cell_angle_gamma    89.99101387994457

_space_group_name_H-M_alt    "P 1"
_space_group_IT_number       1

loop_
  _space_group_symop_operation_xyz
  'x, y, z'

loop_
  _atom_site_type_symbol
  _atom_site_label
  _atom_site_symmetry_multiplicity
  _atom_site_fract_x
  _atom_site_fract_y
  _atom_site_fract_z
  _atom_site_occupancy
  Ba  Ba1       1.0  0.935608092558211  0.7389281669717497  0.8767452594485782  1.0000
  O   O1        1.0  0.14439780045006523  0.9478297840802962  0.29468614214809985  1.0000
  O   O2        1.0  0.4393824713059165  0.242703639885688  0.8841265237842177  1.0000
  O   O3        1.0  0.7918632169922633  0.09528635489589168  0.5895337343473972  1.0000
  Ba  Ba2       1.0  0.648269130425321  0.4516787069460304  0.3024731088276357  1.0000
  Ti  Ti1       1.0  0.29192266394683325  0.09522012449146519  0.5893602244466738  1.0000
  O   O4        1.0  0.29187289644085096  0.5952864018328273  0.5895122812837329  1.0000
