data_image696
_chemical_formula_structural       BaTiO2
_chemical_formula_sum              "Ba1 Ti1 O2"
_cell_length_a       3.248302937394943
_cell_length_b       3.2440277544709293
_cell_length_c       7.076836109161378
_cell_angle_alpha    76.69358459980367
_cell_angle_beta     76.69223230563468
_cell_angle_gamma    59.97902765206922

_space_group_name_H-M_alt    "P 1"
_space_group_IT_number       1

loop_
  _space_group_symop_operation_xyz
  'x, y, z'

loop_
  _atom_site_type_symbol
  _atom_site_label
  _atom_site_symmetry_multiplicity
  _atom_site_fract_x
  _atom_site_fract_y
  _atom_site_fract_z
  _atom_site_occupancy
  Ba  Ba1       1.0  0.7235812648740131  0.888034624416428  0.4630067081519266  1.0000
  Ti  Ti1       1.0  0.22327837740538684  0.3887718896843084  0.9629712733403774  1.0000
  O   O1        1.0  0.6000624468133207  0.765465002580276  0.8331693410560476  1.0000
  O   O2        1.0  0.846469613186945  0.012032256614045212  0.0927451755702437  1.0000
