data_image640
_chemical_formula_structural       TiBaO2
_chemical_formula_sum              "Ti1 Ba1 O2"
_cell_length_a       4.018018713430071
_cell_length_b       4.013659758557322
_cell_length_c       4.122005462646484
_cell_angle_alpha    89.9550530271125
_cell_angle_beta     89.90750125124177
_cell_angle_gamma    89.96807137128123

_space_group_name_H-M_alt    "P 1"
_space_group_IT_number       1

loop_
  _space_group_symop_operation_xyz
  'x, y, z'

loop_
  _atom_site_type_symbol
  _atom_site_label
  _atom_site_symmetry_multiplicity
  _atom_site_fract_x
  _atom_site_fract_y
  _atom_site_fract_z
  _atom_site_occupancy
  Ti  Ti1       1.0  0.3836686642115336  0.5106217129391438  0.032046944607880226  1.0000
  Ba  Ba1       1.0  0.8835584720376584  0.010818054352824458  0.5318987523689047  1.0000
  O   O1        1.0  0.38404711382213735  0.010635649938506651  0.03273132029718623  1.0000
  O   O2        1.0  0.8841471182265564  0.5106411085970826  0.03155256419587047  1.0000
