data_image255
_chemical_formula_structural       TiBaTiBaO6BaO
_chemical_formula_sum              "Ti2 Ba3 O7"
_cell_length_a       4.077616098092836
_cell_length_b       4.0755329061613494
_cell_length_c       11.122619628906248
_cell_angle_alpha    100.38774380844096
_cell_angle_beta     100.34698125527602
_cell_angle_gamma    89.69937844528802

_space_group_name_H-M_alt    "P 1"
_space_group_IT_number       1

loop_
  _space_group_symop_operation_xyz
  'x, y, z'

loop_
  _atom_site_type_symbol
  _atom_site_label
  _atom_site_symmetry_multiplicity
  _atom_site_fract_x
  _atom_site_fract_y
  _atom_site_fract_z
  _atom_site_occupancy
  Ti  Ti1       1.0  0.18429716088030307  0.6595361526399303  0.8419548286542541  1.0000
  Ba  Ba1       1.0  0.7575044470981003  0.23293953931345462  0.018131537190357414  1.0000
  Ti  Ti2       1.0  0.9535347220126571  0.4290629282089995  0.46307077538411384  1.0000
  Ba  Ba2       1.0  0.38034450165506145  0.8556644110908752  0.28682394639626835  1.0000
  O   O1        1.0  0.15819275875753222  0.12369829238896679  0.8411320006091677  1.0000
  O   O2        1.0  0.8917076304239788  0.36681316117876217  0.28107601414919586  1.0000
  O   O3        1.0  0.6479578962648367  0.6336485387064493  0.8411242853042399  1.0000
  O   O4        1.0  0.06876194495298042  0.5442535695266015  0.6523984230784288  1.0000
  O   O5        1.0  0.24577213359466216  0.7217342886395931  0.02384802069002615  1.0000
  O   O6        1.0  0.48959811532874553  0.45460524917619244  0.46371515438749206  1.0000
  Ba  Ba3       1.0  0.5687402291836507  0.044224279904750016  0.652491688706493  1.0000
  O   O7        1.0  0.9794467985039725  0.9646954531810654  0.4637265479630764  1.0000
