data_image603
_chemical_formula_structural       Ti2BaOBaO5
_chemical_formula_sum              "Ti2 Ba2 O6"
_cell_length_a       5.083092100590684
_cell_length_b       5.847565928875776
_cell_length_c       5.845746994018555
_cell_angle_alpha    120.25477075069857
_cell_angle_beta     90.11578104818857
_cell_angle_gamma    90.08535935144411

_space_group_name_H-M_alt    "P 1"
_space_group_IT_number       1

loop_
  _space_group_symop_operation_xyz
  'x, y, z'

loop_
  _atom_site_type_symbol
  _atom_site_label
  _atom_site_symmetry_multiplicity
  _atom_site_fract_x
  _atom_site_fract_y
  _atom_site_fract_z
  _atom_site_occupancy
  Ti  Ti1       1.0  0.8191867602545528  0.7432389313366691  0.4459920621362277  1.0000
  Ti  Ti2       1.0  0.31925072434580387  0.743171974886266  0.4460795192708757  1.0000
  Ba  Ba1       1.0  0.5693945665241105  0.40990953434682187  0.7793465076086494  1.0000
  O   O1        1.0  0.5699793195554066  0.8936218156993715  0.7460435761547651  1.0000
  Ba  Ba2       1.0  0.06822253832256125  0.0765152772385079  0.11257947655889572  1.0000
  O   O2        1.0  0.5689464566238641  0.4432802796188891  0.2955534758842418  1.0000
  O   O3        1.0  0.5692444565069655  0.8927252178506335  0.29654104715313184  1.0000
  O   O4        1.0  0.06882842660535837  0.5926937003800846  0.14595354010192574  1.0000
  O   O5        1.0  0.06978495379359934  0.04312801801200435  0.5963711771018896  1.0000
  O   O6        1.0  0.0693333564410031  0.5937757941674673  0.5955682966216291  1.0000
