data_image325
_chemical_formula_structural       OTiO2BaOBa2TiOBa3O4TiO
_chemical_formula_sum              "O10 Ti3 Ba6"
_cell_length_a       6.588515928931647
_cell_length_b       6.329506631159885
_cell_length_c       10.554346084594727
_cell_angle_alpha    87.51114321586707
_cell_angle_beta     71.47549724266645
_cell_angle_gamma    70.67685719227845

_space_group_name_H-M_alt    "P 1"
_space_group_IT_number       1

loop_
  _space_group_symop_operation_xyz
  'x, y, z'

loop_
  _atom_site_type_symbol
  _atom_site_label
  _atom_site_symmetry_multiplicity
  _atom_site_fract_x
  _atom_site_fract_y
  _atom_site_fract_z
  _atom_site_occupancy
  O   O1        1.0  0.7083801786965855  0.7359479419764446  0.2587925849189282  1.0000
  Ti  Ti1       1.0  0.7452964972873443  0.45926314943748375  0.338134403059464  1.0000
  O   O2        1.0  0.5939168298332652  0.2750244167819559  0.8348408111786431  1.0000
  O   O3        1.0  0.14361080002396648  0.8414059566757173  0.4859730286181287  1.0000
  Ba  Ba1       1.0  0.31292144204483924  0.0722467598596218  0.257383264755296  1.0000
  O   O4        1.0  0.7527703257055824  0.38433282002654884  0.5094134807333413  1.0000
  Ba  Ba2       1.0  0.010879548408546977  0.18737719757704624  0.6628926739685975  1.0000
  Ba  Ba3       1.0  0.7058922383929183  0.9734073575074773  0.4749378927689829  1.0000
  Ti  Ti2       1.0  0.2703957796715433  0.5617971349257592  0.3910455107126409  1.0000
  O   O5        1.0  0.30525635198449746  0.30274335795318713  0.4817141057932325  1.0000
  Ba  Ba4       1.0  0.03852128826134023  0.8061109856446395  0.0839506038702812  1.0000
  Ba  Ba5       1.0  0.6777394360786428  0.48274677375789177  0.022906158061154726  1.0000
  Ba  Ba6       1.0  0.3640805984597995  0.573793586368808  0.6912126930221357  1.0000
  O   O6        1.0  0.11954525974470791  0.34804176656081903  0.887150826006487  1.0000
  O   O7        1.0  0.4079636912068728  0.9240023984228588  0.003764249202834327  1.0000
  O   O8        1.0  0.42501344309503625  0.9585625063928453  0.7146710860855048  1.0000
  O   O9        1.0  0.8745274306946292  0.19509732901528803  0.22964844809810203  1.0000
  Ti  Ti3       1.0  0.3925719131171776  0.11693139631186854  0.8671914824401706  1.0000
  O   O10       1.0  0.28502524394764944  0.5430309235768843  0.21363968361967464  1.0000
