data_image20
_chemical_formula_structural       OBaTi2O3BaO4
_chemical_formula_sum              "O8 Ba2 Ti2"
_cell_length_a       3.990306110168839
_cell_length_b       6.208323889705412
_cell_length_c       7.305075645446777
_cell_angle_alpha    89.84464301276608
_cell_angle_beta     105.3100007384948
_cell_angle_gamma    89.93405019262929

_space_group_name_H-M_alt    "P 1"
_space_group_IT_number       1

loop_
  _space_group_symop_operation_xyz
  'x, y, z'

loop_
  _atom_site_type_symbol
  _atom_site_label
  _atom_site_symmetry_multiplicity
  _atom_site_fract_x
  _atom_site_fract_y
  _atom_site_fract_z
  _atom_site_occupancy
  O   O1        1.0  0.9689976422023927  0.9468973694134024  0.714160943280422  1.0000
  Ba  Ba1       1.0  0.16069547450754038  0.1622605438808294  0.059066090400115547  1.0000
  Ti  Ti1       1.0  0.7381698157114995  0.66036205409022  0.18330720227392802  1.0000
  Ti  Ti2       1.0  0.8652984195046924  0.1597170013214578  0.537089608541138  1.0000
  O   O2        1.0  0.6345853836648648  0.44798707786844694  0.006976122764979609  1.0000
  O   O3        1.0  0.37007202628870534  0.15704714102427933  0.5057830924921444  1.0000
  O   O4        1.0  0.6282821039132188  0.8821505417967692  0.9959551567105526  1.0000
  Ba  Ba2       1.0  0.4428926027993816  0.6620734176681069  0.6615059949896632  1.0000
  O   O5        1.0  0.23333401125276304  0.6581473193934564  0.21441247594060306  1.0000
  O   O6        1.0  0.7858319003603795  0.9547201591063647  0.3191756712271806  1.0000
  O   O7        1.0  0.97536399452505  0.38095849372546003  0.7237870594598897  1.0000
  O   O8        1.0  0.8175094314118521  0.45483964261683013  0.40141727386754333  1.0000
