data_image26
_chemical_formula_structural       TiBaO2
_chemical_formula_sum              "Ti1 Ba1 O2"
_cell_length_a       4.0485768412168115
_cell_length_b       4.046841715711859
_cell_length_c       6.722260475158691
_cell_angle_alpha    72.59434365350275
_cell_angle_beta     72.57985065014691
_cell_angle_gamma    60.196618548522714

_space_group_name_H-M_alt    "P 1"
_space_group_IT_number       1

loop_
  _space_group_symop_operation_xyz
  'x, y, z'

loop_
  _atom_site_type_symbol
  _atom_site_label
  _atom_site_symmetry_multiplicity
  _atom_site_fract_x
  _atom_site_fract_y
  _atom_site_fract_z
  _atom_site_occupancy
  Ti  Ti1       1.0  0.8855341995502605  0.6812289021522615  0.7650373429105803  1.0000
  Ba  Ba1       1.0  0.3859947139591685  0.18153302155799594  0.2650606635796953  1.0000
  O   O1        1.0  0.9829309340648658  0.778557059460076  0.47304794524506477  1.0000
  O   O2        1.0  0.7890739536240442  0.5845214217145271  0.05702233098610211  1.0000
