data_image191
_chemical_formula_structural       BaO2TiBaO2
_chemical_formula_sum              "Ba2 O4 Ti1"
_cell_length_a       4.0340033215248905
_cell_length_b       4.034385527986708
_cell_length_c       7.34137773513794
_cell_angle_alpha    105.94474475933923
_cell_angle_beta     105.95383433255756
_cell_angle_gamma    90.02524650407199

_space_group_name_H-M_alt    "P 1"
_space_group_IT_number       1

loop_
  _space_group_symop_operation_xyz
  'x, y, z'

loop_
  _atom_site_type_symbol
  _atom_site_label
  _atom_site_symmetry_multiplicity
  _atom_site_fract_x
  _atom_site_fract_y
  _atom_site_fract_z
  _atom_site_occupancy
  Ba  Ba1       1.0  0.9238339807951497  0.721491520832228  0.7862393454245493  1.0000
  O   O1        1.0  0.42792575241697217  0.22540478787006626  0.7940772504872335  1.0000
  O   O2        1.0  0.7802127932665762  0.07775979236965118  0.49905010033569097  1.0000
  Ti  Ti1       1.0  0.28012447542254504  0.07794355626056645  0.49904143412191054  1.0000
  Ba  Ba2       1.0  0.6362198760515553  0.4341797706637454  0.2118186247696787  1.0000
  O   O3        1.0  0.28015599864828616  0.5777911306686615  0.4990475206734841  1.0000
  O   O4        1.0  0.13238807856892304  0.9305223061888223  0.2042546431454346  1.0000
