data_image1060
_chemical_formula_structural       Ba2OTiO2
_chemical_formula_sum              "Ba2 O3 Ti1"
_cell_length_a       3.9636886234304756
_cell_length_b       4.03244696123538
_cell_length_c       7.369200706481933
_cell_angle_alpha    105.87501993918453
_cell_angle_beta     105.67085267156052
_cell_angle_gamma    90.04166673956854

_space_group_name_H-M_alt    "P 1"
_space_group_IT_number       1

loop_
  _space_group_symop_operation_xyz
  'x, y, z'

loop_
  _atom_site_type_symbol
  _atom_site_label
  _atom_site_symmetry_multiplicity
  _atom_site_fract_x
  _atom_site_fract_y
  _atom_site_fract_z
  _atom_site_occupancy
  Ba  Ba1       1.0  0.907485762372775  0.06104957498446102  0.2967649336659109  1.0000
  Ba  Ba2       1.0  0.20856231833386188  0.3618781373000347  0.8984497756501327  1.0000
  O   O1        1.0  0.5579699344042516  0.2114671672849787  0.5975520941605159  1.0000
  Ti  Ti1       1.0  0.5580268957424346  0.7115081584726481  0.5976239910215627  1.0000
  O   O2        1.0  0.7018674631142252  0.8552735798907305  0.8850983178514543  1.0000
  O   O3        1.0  0.41413629994044304  0.5676607285754268  0.31001279992488273  1.0000
