data_image216
_chemical_formula_structural       Ba2TiO6TiO2
_chemical_formula_sum              "Ba2 Ti2 O8"
_cell_length_a       3.986384958807544
_cell_length_b       6.252148845912514
_cell_length_c       7.316758155822755
_cell_angle_alpha    89.76059755919621
_cell_angle_beta     105.22723068259786
_cell_angle_gamma    89.8901184096235

_space_group_name_H-M_alt    "P 1"
_space_group_IT_number       1

loop_
  _space_group_symop_operation_xyz
  'x, y, z'

loop_
  _atom_site_type_symbol
  _atom_site_label
  _atom_site_symmetry_multiplicity
  _atom_site_fract_x
  _atom_site_fract_y
  _atom_site_fract_z
  _atom_site_occupancy
  Ba  Ba1       1.0  0.7178209139129549  0.635143500913926  0.566901162816864  1.0000
  Ba  Ba2       1.0  0.43061924206492214  0.1354542260534605  0.9595258173654024  1.0000
  Ti  Ti1       1.0  0.14020029873377565  0.13369762835815063  0.43880208941881693  1.0000
  O   O1        1.0  0.9075292226668606  0.42293894820732336  0.9132794597016188  1.0000
  O   O2        1.0  0.05644142914037337  0.9306331775000212  0.22108768301256862  1.0000
  O   O3        1.0  0.24105477356959218  0.9214557008072022  0.6144627066581763  1.0000
  O   O4        1.0  0.5059690189774734  0.634247233258623  0.11945488824218853  1.0000
  O   O5        1.0  0.6422122878179444  0.13265612448119524  0.4063464332868587  1.0000
  O   O6        1.0  0.9004397397081005  0.8554386844955075  0.9004849358430982  1.0000
  Ti  Ti2       1.0  0.008408787699796028  0.6347172360065544  0.08742613494959271  1.0000
  O   O7        1.0  0.2483014335459246  0.35365183172970865  0.6249457007466707  1.0000
  O   O8        1.0  0.0918887114802454  0.43085335816870207  0.30622645831555323  1.0000
