data_image858
_chemical_formula_structural       Ba3TiO2BaO2TiO2
_chemical_formula_sum              "Ba4 Ti2 O6"
_cell_length_a       3.9197736163859576
_cell_length_b       5.851017118515051
_cell_length_c       12.183803558349608
_cell_angle_alpha    94.79184479609751
_cell_angle_beta     99.18704475904877
_cell_angle_gamma    90.0376641446015

_space_group_name_H-M_alt    "P 1"
_space_group_IT_number       1

loop_
  _space_group_symop_operation_xyz
  'x, y, z'

loop_
  _atom_site_type_symbol
  _atom_site_label
  _atom_site_symmetry_multiplicity
  _atom_site_fract_x
  _atom_site_fract_y
  _atom_site_fract_z
  _atom_site_occupancy
  Ba  Ba1       1.0  0.5548153278963295  0.40948135751678005  0.8721664981326324  1.0000
  Ba  Ba2       1.0  0.9179135486356338  0.8638420826987471  0.6011869189877582  1.0000
  Ba  Ba3       1.0  0.7959611188318092  0.40887822437452204  0.3567486308182016  1.0000
  Ti  Ti1       1.0  0.17862513280470194  0.3762640322547786  0.12051089001747192  1.0000
  O   O1        1.0  0.23636130321239843  0.13671746139912905  0.2366327335120451  1.0000
  O   O2        1.0  0.6728184699214852  0.34417689818229746  0.108877091663715  1.0000
  Ba  Ba4       1.0  0.6767579347099488  0.8646349714275943  0.11651820540020097  1.0000
  O   O3        1.0  0.11651239168752808  0.5775032435778119  0.9954954641502529  1.0000
  O   O4        1.0  0.3562008162833862  0.6960137496146442  0.47780798166654165  1.0000
  Ti  Ti2       1.0  0.294099377080676  0.8972176135837621  0.3527813267038133  1.0000
  O   O5        1.0  0.23636780757436401  0.6367278024892028  0.23665184238259482  1.0000
  O   O6        1.0  0.7999048474437425  0.9293024317549751  0.36441198566829164  1.0000
