data_image780
_chemical_formula_structural       O3Ba2TiBaO4Ti2O3
_chemical_formula_sum              "O10 Ba3 Ti3"
_cell_length_a       3.8579500623193272
_cell_length_b       3.860584261990952
_cell_length_c       15.585766792297363
_cell_angle_alpha    90.00224280635953
_cell_angle_beta     89.98761254131658
_cell_angle_gamma    89.99141012647316

_space_group_name_H-M_alt    "P 1"
_space_group_IT_number       1

loop_
  _space_group_symop_operation_xyz
  'x, y, z'

loop_
  _atom_site_type_symbol
  _atom_site_label
  _atom_site_symmetry_multiplicity
  _atom_site_fract_x
  _atom_site_fract_y
  _atom_site_fract_z
  _atom_site_occupancy
  O   O1        1.0  0.8156157462238817  0.3424791689698048  0.5325073558847692  1.0000
  O   O2        1.0  0.815848219551834  0.3423812964646935  0.09022000190185019  1.0000
  O   O3        1.0  0.8159157892064187  0.3427396167316308  0.8189970641335224  1.0000
  Ba  Ba1       1.0  0.3158551089131054  0.34252481248886696  0.958757292299445  1.0000
  Ba  Ba2       1.0  0.31529471475208865  0.3423203091310536  0.3075544679041376  1.0000
  Ti  Ti1       1.0  0.8158396287772431  0.8423349628515334  0.11380652161663353  1.0000
  Ba  Ba3       1.0  0.31563862015811484  0.3425950103802573  0.6584722473514351  1.0000
  O   O4        1.0  0.8158498697516323  0.8425340968868655  0.9463594258205591  1.0000
  O   O5        1.0  0.31580648850520465  0.8429013499600599  0.8191287633912306  1.0000
  O   O6        1.0  0.8157390711214747  0.8426576370375408  0.689951175641189  1.0000
  O   O7        1.0  0.8156424015400454  0.8422627291616612  0.39088987374938483  1.0000
  Ti  Ti2       1.0  0.8157813252020922  0.8426966358984018  0.8082864730448311  1.0000
  Ti  Ti3       1.0  0.8155752915905616  0.8423965750924651  0.5045374001252239  1.0000
  O   O8        1.0  0.8158416974052949  0.8422207459487775  0.22756774722904236  1.0000
  O   O9        1.0  0.3155947867333226  0.8425235602718829  0.5326265501434427  1.0000
  O   O10       1.0  0.31585313847631896  0.8424319810258981  0.09012697443927105  1.0000
