data_image160
_chemical_formula_structural       BaOTiO3BaTiO3
_chemical_formula_sum              "Ba2 O7 Ti2"
_cell_length_a       3.960352850273841
_cell_length_b       3.9631280868679855
_cell_length_c       11.160604476928711
_cell_angle_alpha    100.24316889983803
_cell_angle_beta     100.20697567877698
_cell_angle_gamma    90.13000165864803

_space_group_name_H-M_alt    "P 1"
_space_group_IT_number       1

loop_
  _space_group_symop_operation_xyz
  'x, y, z'

loop_
  _atom_site_type_symbol
  _atom_site_label
  _atom_site_symmetry_multiplicity
  _atom_site_fract_x
  _atom_site_fract_y
  _atom_site_fract_z
  _atom_site_occupancy
  Ba  Ba1       1.0  0.9134670201907386  0.33876844387586535  0.48502978131533026  1.0000
  O   O1        1.0  0.3287384874005971  0.25420482951510265  0.31600733715344326  1.0000
  Ti  Ti1       1.0  0.3172060280078221  0.741797890610252  0.29190916942553785  1.0000
  O   O2        1.0  0.8286013049732517  0.7540625839887694  0.3160532941996135  1.0000
  O   O3        1.0  0.13594874551408617  0.061374218306007  0.9301558882549466  1.0000
  O   O4        1.0  0.2323125893747843  0.6577611549398535  0.12305184511327089  1.0000
  Ba  Ba2       1.0  0.5513288369771934  0.976773130836496  0.7610988082868185  1.0000
  Ti  Ti2       1.0  0.14783746673290932  0.5736764475417216  0.954138547839342  1.0000
  O   O5        1.0  0.6358907085832466  0.5614757408154084  0.9300431136053593  1.0000
  O   O6        1.0  0.42186850236750795  0.847356662804309  0.5019297855083305  1.0000
  O   O7        1.0  0.042902258078846206  0.4682397546856353  0.7442959544019814  1.0000
