data_image791
_chemical_formula_structural       Ba3O3TiO2BaO2
_chemical_formula_sum              "Ba4 O7 Ti1"
_cell_length_a       3.9557964361527382
_cell_length_b       4.2039459710245035
_cell_length_c       14.233151435852049
_cell_angle_alpha    90.12712598629479
_cell_angle_beta     90.07910975282397
_cell_angle_gamma    90.32982551848511

_space_group_name_H-M_alt    "P 1"
_space_group_IT_number       1

loop_
  _space_group_symop_operation_xyz
  'x, y, z'

loop_
  _atom_site_type_symbol
  _atom_site_label
  _atom_site_symmetry_multiplicity
  _atom_site_fract_x
  _atom_site_fract_y
  _atom_site_fract_z
  _atom_site_occupancy
  Ba  Ba1       1.0  0.5377828799363589  0.9275084263408964  0.03273957465867665  1.0000
  Ba  Ba2       1.0  0.03681916546321309  0.4289950495199513  0.8210769922875655  1.0000
  Ba  Ba3       1.0  0.03805541636510954  0.41748882337229964  0.2558240729974934  1.0000
  O   O1        1.0  0.5388050201822949  0.9412188538288985  0.5141407537697203  1.0000
  O   O2        1.0  0.538060725095636  0.45137587901148035  0.3820053300448933  1.0000
  O   O3        1.0  0.03733542928141356  0.9298708364812598  0.9240503889551196  1.0000
  Ti  Ti1       1.0  0.5391030865588922  0.9016617260580512  0.38667930720642246  1.0000
  O   O4        1.0  0.5374919698307651  0.42706038718925277  0.9423919474696842  1.0000
  O   O5        1.0  0.5368837205786503  0.4270360326071153  0.6868147613600433  1.0000
  Ba  Ba4       1.0  0.04046726024366437  0.41637373983696585  0.5420621127728045  1.0000
  O   O6        1.0  0.0383671877617079  0.9370400672685024  0.3792403376956483  1.0000
  O   O7        1.0  0.5372317178302776  0.9396929420289782  0.23351233062409066  1.0000
