data_image982
_chemical_formula_structural       BaTiO3TiO3
_chemical_formula_sum              "Ba1 Ti2 O6"
_cell_length_a       5.330050043987959
_cell_length_b       5.402779165878642
_cell_length_c       5.490255355834961
_cell_angle_alpha    89.74509304211988
_cell_angle_beta     90.3496262432919
_cell_angle_gamma    119.57418266179425

_space_group_name_H-M_alt    "P 1"
_space_group_IT_number       1

loop_
  _space_group_symop_operation_xyz
  'x, y, z'

loop_
  _atom_site_type_symbol
  _atom_site_label
  _atom_site_symmetry_multiplicity
  _atom_site_fract_x
  _atom_site_fract_y
  _atom_site_fract_z
  _atom_site_occupancy
  Ba  Ba1       1.0  0.3373402006847955  0.3381077091400032  0.2397601076149432  1.0000
  Ti  Ti1       1.0  0.038641297575307106  0.740102516992083  0.7396260808149394  1.0000
  O   O1        1.0  0.9101479661971527  0.3383412798655814  0.6213117229841586  1.0000
  O   O2        1.0  0.7651525681505007  0.33790813731650343  0.8575779244314553  1.0000
  O   O3        1.0  0.9437658439749432  0.9425924305819778  0.9490597169639561  1.0000
  Ti  Ti2       1.0  0.6367406900003899  0.9361418255369615  0.7394048781002397  1.0000
  O   O4        1.0  0.33633170904413046  0.9428254277811396  0.5298296307649012  1.0000
  O   O5        1.0  0.339010369586438  0.7332587146247346  0.9491253972916739  1.0000
  O   O6        1.0  0.731740053001977  0.7338263943235407  0.5298767156927305  1.0000
