data_image212
_chemical_formula_structural       TiBaO2BaO3TiBaO
_chemical_formula_sum              "Ti2 Ba3 O6"
_cell_length_a       4.028260652502386
_cell_length_b       4.025397736009435
_cell_length_c       11.252681732177734
_cell_angle_alpha    100.3073797144058
_cell_angle_beta     100.32259039576212
_cell_angle_gamma    90.06094844131856

_space_group_name_H-M_alt    "P 1"
_space_group_IT_number       1

loop_
  _space_group_symop_operation_xyz
  'x, y, z'

loop_
  _atom_site_type_symbol
  _atom_site_label
  _atom_site_symmetry_multiplicity
  _atom_site_fract_x
  _atom_site_fract_y
  _atom_site_fract_z
  _atom_site_occupancy
  Ti  Ti1       1.0  0.4861074112320534  0.9452699141283926  0.42397551302043385  1.0000
  Ba  Ba1       1.0  0.06875610024891517  0.5279103936150327  0.5891393094581336  1.0000
  O   O1        1.0  0.7937352034663367  0.7530269798688138  0.03901857197658428  1.0000
  O   O2        1.0  0.29377355904517993  0.2531056723555686  0.03913341952604763  1.0000
  Ba  Ba2       1.0  0.7018742064145335  0.16121101235684868  0.855482243477605  1.0000
  O   O3        1.0  0.47684492346115204  0.43599078414461157  0.4054681012989262  1.0000
  O   O4        1.0  0.976888657963514  0.9360534508583123  0.40558367961153124  1.0000
  O   O5        1.0  0.19566157353432934  0.6550780868054042  0.8432859935767262  1.0000
  Ti  Ti2       1.0  0.28452864194812627  0.7438319649037795  0.020654900232526165  1.0000
  Ba  Ba3       1.0  0.8853058415979236  0.3445246298233913  0.22229544821858324  1.0000
  O   O6        1.0  0.5750022658268923  0.0340957097011534  0.601374885284765  1.0000
