data_image822
_chemical_formula_structural       BaOBaTi2O6
_chemical_formula_sum              "Ba2 O7 Ti2"
_cell_length_a       3.850487818256811
_cell_length_b       6.798053527069116
_cell_length_c       6.413526058197022
_cell_angle_alpha    93.69023790397665
_cell_angle_beta     89.92333362445844
_cell_angle_gamma    90.03842914858993

_space_group_name_H-M_alt    "P 1"
_space_group_IT_number       1

loop_
  _space_group_symop_operation_xyz
  'x, y, z'

loop_
  _atom_site_type_symbol
  _atom_site_label
  _atom_site_symmetry_multiplicity
  _atom_site_fract_x
  _atom_site_fract_y
  _atom_site_fract_z
  _atom_site_occupancy
  Ba  Ba1       1.0  0.612126609713241  0.0696394826333043  0.07010004544071638  1.0000
  O   O1        1.0  0.11158392768224389  0.9470704680729856  0.32075109023566495  1.0000
  Ba  Ba2       1.0  0.6106861741714337  0.4790245636693523  0.740282124116553  1.0000
  Ti  Ti1       1.0  0.11136785878038276  0.6332315436676192  0.20420397428792855  1.0000
  Ti  Ti2       1.0  0.11141578629152542  0.915513025354224  0.606393899691562  1.0000
  O   O2        1.0  0.11143098395974022  0.774460552198157  0.9052399846338361  1.0000
  O   O3        1.0  0.6115583550468222  0.6675964141708863  0.15861632900892086  1.0000
  O   O4        1.0  0.11117061947502274  0.6015310720968746  0.4896822874453997  1.0000
  O   O5        1.0  0.11156285481423227  0.3826341621905767  0.09047882998991237  1.0000
  O   O6        1.0  0.6112433882341805  0.8811814677435404  0.6519103438133089  1.0000
  O   O7        1.0  0.11126148135052645  0.1661292870319882  0.7199030332336737  1.0000
