data_image518
_chemical_formula_structural       TiBa2OTiOTi2O6
_chemical_formula_sum              "Ti4 Ba2 O8"
_cell_length_a       4.037422658315205
_cell_length_b       6.663113122125731
_cell_length_c       8.08802318572998
_cell_angle_alpha    90.07512092046063
_cell_angle_beta     75.61843737829597
_cell_angle_gamma    72.36905603119104

_space_group_name_H-M_alt    "P 1"
_space_group_IT_number       1

loop_
  _space_group_symop_operation_xyz
  'x, y, z'

loop_
  _atom_site_type_symbol
  _atom_site_label
  _atom_site_symmetry_multiplicity
  _atom_site_fract_x
  _atom_site_fract_y
  _atom_site_fract_z
  _atom_site_occupancy
  Ti  Ti1       1.0  0.3897292722805474  0.8888199815026334  0.17182383368953696  1.0000
  Ba  Ba1       1.0  0.6624103555922142  0.3173756100154317  0.19800780826438807  1.0000
  Ba  Ba2       1.0  0.30499786053194045  0.4472183203620909  0.7833225370762897  1.0000
  O   O1        1.0  0.08570846640196964  0.8890897923930363  0.780120986498824  1.0000
  Ti  Ti2       1.0  0.5781085058730527  0.8756944900177622  0.8087395166028949  1.0000
  O   O2        1.0  0.8820554382258354  0.8753495195542725  0.20066362608663188  1.0000
  Ti  Ti3       1.0  0.8246824066745954  0.7583882665284294  0.4326382334179101  1.0000
  Ti  Ti4       1.0  0.14296670552976126  0.006183775247471807  0.5482335756005913  1.0000
  O   O3        1.0  0.36158161271388384  0.7198614447617888  0.39712002169340205  1.0000
  O   O4        1.0  0.7971550989197425  0.6106036352608589  0.6353042732259949  1.0000
  O   O5        1.0  0.6060356358304294  0.04485250721901465  0.5836604778654501  1.0000
  O   O6        1.0  0.5971919479638003  0.6603816785338489  0.9855185914853277  1.0000
  O   O7        1.0  0.37056530558292466  0.10400842047357889  0.9953662693821526  1.0000
  O   O8        1.0  0.17058947857467388  0.1538198434596206  0.3455188190137716  1.0000
