data_image85
_chemical_formula_structural       OBaOTi2BaO2BaO3
_chemical_formula_sum              "O7 Ba3 Ti2"
_cell_length_a       3.9791226718053125
_cell_length_b       4.058446759048558
_cell_length_c       11.446921348571777
_cell_angle_alpha    100.18728446305329
_cell_angle_beta     89.94004027134822
_cell_angle_gamma    89.9607562392656

_space_group_name_H-M_alt    "P 1"
_space_group_IT_number       1

loop_
  _space_group_symop_operation_xyz
  'x, y, z'

loop_
  _atom_site_type_symbol
  _atom_site_label
  _atom_site_symmetry_multiplicity
  _atom_site_fract_x
  _atom_site_fract_y
  _atom_site_fract_z
  _atom_site_occupancy
  O   O1        1.0  0.5598044775802563  0.17205776674704418  0.035433324708266996  1.0000
  Ba  Ba1       1.0  0.05727522041340384  0.8531855489567918  0.3914823142451498  1.0000
  O   O2        1.0  0.5576946890050539  0.3543736509706958  0.3914886929775847  1.0000
  Ti  Ti1       1.0  0.5552247753158199  0.42806908320088105  0.5744812147862511  1.0000
  Ti  Ti2       1.0  0.5586256611421063  0.2783225791403491  0.20871901990485545  1.0000
  Ba  Ba2       1.0  0.054409827652573566  0.02180155710545221  0.7421307477976087  1.0000
  O   O3        1.0  0.058826938903104184  0.2573021524719286  0.20956756164968413  1.0000
  O   O4        1.0  0.056685292145558695  0.4514364961664042  0.5735113035355585  1.0000
  Ba  Ba3       1.0  0.0599697741222319  0.6843034461678273  0.041174283229732565  1.0000
  O   O5        1.0  0.5555234860677377  0.5367032712608778  0.7477312583546246  1.0000
  O   O6        1.0  0.5563878745762375  0.9566461943326527  0.5742094913707129  1.0000
  O   O7        1.0  0.5587179430190932  0.7520565818198547  0.20893740996549784  1.0000
