data_image284
_chemical_formula_structural       OBaTiBaO2
_chemical_formula_sum              "O3 Ba2 Ti1"
_cell_length_a       4.000202000010986
_cell_length_b       4.005372608373959
_cell_length_c       8.870959281921387
_cell_angle_alpha    103.00586362896105
_cell_angle_beta     102.96133242699482
_cell_angle_gamma    90.02845704204019

_space_group_name_H-M_alt    "P 1"
_space_group_IT_number       1

loop_
  _space_group_symop_operation_xyz
  'x, y, z'

loop_
  _atom_site_type_symbol
  _atom_site_label
  _atom_site_symmetry_multiplicity
  _atom_site_fract_x
  _atom_site_fract_y
  _atom_site_fract_z
  _atom_site_occupancy
  O   O1        1.0  0.016602034327830868  0.9296816400453395  0.6306705317219025  1.0000
  Ba  Ba1       1.0  0.4010689463355027  0.8138905873853701  0.39880148479928923  1.0000
  Ti  Ti1       1.0  0.02665892360893306  0.43974902483475165  0.6508439136482937  1.0000
  Ba  Ba2       1.0  0.6429871715743525  0.056318559024591486  0.8843566269960632  1.0000
  O   O2        1.0  0.5164418831564346  0.42946980683240576  0.6303026207271731  1.0000
  O   O3        1.0  0.14003836877495318  0.5533527533738681  0.8783954362486452  1.0000
