data_image719
_chemical_formula_structural       BaOTiBaTiBaTiBaO2TiO9
_chemical_formula_sum              "Ba4 O12 Ti4"
_cell_length_a       5.400597675364212
_cell_length_b       6.111217032080376
_cell_length_c       10.360967636108398
_cell_angle_alpha    89.8987244531714
_cell_angle_beta     89.98880782521518
_cell_angle_gamma    89.94058668927926

_space_group_name_H-M_alt    "P 1"
_space_group_IT_number       1

loop_
  _space_group_symop_operation_xyz
  'x, y, z'

loop_
  _atom_site_type_symbol
  _atom_site_label
  _atom_site_symmetry_multiplicity
  _atom_site_fract_x
  _atom_site_fract_y
  _atom_site_fract_z
  _atom_site_occupancy
  Ba  Ba1       1.0  0.0423710555353102  0.46470823581587123  0.8822424069032142  1.0000
  O   O1        1.0  0.7922070597397961  0.17794233585379007  0.052404261868990165  1.0000
  Ti  Ti1       1.0  0.5418229939160695  0.464327686284001  0.6002379008333049  1.0000
  Ba  Ba2       1.0  0.5424525012783843  0.9641776827098822  0.7217983761671941  1.0000
  Ti  Ti2       1.0  0.04185139178181145  0.46388558195347535  0.5036368658939434  1.0000
  Ba  Ba3       1.0  0.042595972491293696  0.9642572834707478  0.38213516808058734  1.0000
  Ti  Ti3       1.0  0.5416945577782646  0.9644780728902611  0.10031898646309556  1.0000
  Ba  Ba4       1.0  0.5425467194372581  0.46412588353103673  0.22189206082240057  1.0000
  O   O2        1.0  0.29200022684025667  0.17789028852635808  0.051619980968729655  1.0000
  O   O3        1.0  0.29174523903626204  0.2505866912117046  0.5523132605099447  1.0000
  Ti  Ti4       1.0  0.04172601751972664  0.9644051390733279  0.003652518464289169  1.0000
  O   O4        1.0  0.04199752697660069  0.46418728810411264  0.3318740382014274  1.0000
  O   O5        1.0  0.790908229890037  0.7509562181913313  0.051237023065045274  1.0000
  O   O6        1.0  0.042432641432093944  0.9646124944248587  0.8318378726942357  1.0000
  O   O7        1.0  0.7922720263767894  0.677578783254368  0.552287582449496  1.0000
  O   O8        1.0  0.5418367390437236  0.46418470104944654  0.7720075881370269  1.0000
  O   O9        1.0  0.542356700009407  0.9643121728180643  0.27207384320274547  1.0000
  O   O10       1.0  0.292070633331553  0.6775999232269444  0.5514770153374285  1.0000
  O   O11       1.0  0.2909249258169726  0.7509486603237913  0.05298587497272481  1.0000
  O   O12       1.0  0.7914490035744047  0.25055941752334887  0.5516323561773468  1.0000
