data_image646
_chemical_formula_structural       Ba2O2Ti2OBaO4
_chemical_formula_sum              "Ba3 O7 Ti2"
_cell_length_a       4.076316219213401
_cell_length_b       4.075077732637327
_cell_length_c       11.090057373046875
_cell_angle_alpha    100.5383352009697
_cell_angle_beta     100.46281447956241
_cell_angle_gamma    90.00992690739417

_space_group_name_H-M_alt    "P 1"
_space_group_IT_number       1

loop_
  _space_group_symop_operation_xyz
  'x, y, z'

loop_
  _atom_site_type_symbol
  _atom_site_label
  _atom_site_symmetry_multiplicity
  _atom_site_fract_x
  _atom_site_fract_y
  _atom_site_fract_z
  _atom_site_occupancy
  Ba  Ba1       1.0  0.7991301156225361  0.4313644486601025  0.9064919389881774  1.0000
  Ba  Ba2       1.0  0.1764659051299636  0.7965582980804251  0.638319794972298  1.0000
  O   O1        1.0  0.5776498275842534  0.7309965261583597  0.4611450615172851  1.0000
  O   O2        1.0  0.06757165660035956  0.2191986152227156  0.4612879832067032  1.0000
  Ti  Ti1       1.0  0.602579818942607  0.19419439628407362  0.46201841274222344  1.0000
  Ti  Ti2       1.0  0.37302904431488754  0.005111919269657618  0.08289122763110562  1.0000
  O   O3        1.0  0.30913540427144054  0.9429386197948197  0.9005424229793966  1.0000
  Ba  Ba3       1.0  0.987766251628874  0.6129143002675651  0.2724231281650426  1.0000
  O   O4        1.0  0.39785634532428094  0.5427859294049033  0.08367215491525322  1.0000
  O   O5        1.0  0.6662572080279617  0.31381214690804515  0.6442799611320285  1.0000
  O   O6        1.0  0.9077638189551299  0.03102673936148958  0.08350624033023715  1.0000
  O   O7        1.0  0.487681287086995  0.1302736140412632  0.2724479969912926  1.0000
