data_image657
_chemical_formula_structural       BaOBaTiOTiO4
_chemical_formula_sum              "Ba2 O6 Ti2"
_cell_length_a       5.3672326794176115
_cell_length_b       5.378859907327475
_cell_length_c       7.124071121215819
_cell_angle_alpha    88.45105893593491
_cell_angle_beta     111.58054590879698
_cell_angle_gamma    93.74199685151176

_space_group_name_H-M_alt    "P 1"
_space_group_IT_number       1

loop_
  _space_group_symop_operation_xyz
  'x, y, z'

loop_
  _atom_site_type_symbol
  _atom_site_label
  _atom_site_symmetry_multiplicity
  _atom_site_fract_x
  _atom_site_fract_y
  _atom_site_fract_z
  _atom_site_occupancy
  Ba  Ba1       1.0  0.6580001860007709  0.5615826291025351  0.05949076887474149  1.0000
  O   O1        1.0  0.0678497012745296  0.2590468396742622  0.6980704102969907  1.0000
  Ba  Ba2       1.0  0.3959911749545627  0.05927712106335607  0.5295005571785253  1.0000
  Ti  Ti1       1.0  0.08377801168205982  0.08370215985103868  0.9375581746512667  1.0000
  O   O2        1.0  0.7560365543557716  0.07499615407316859  0.9442738388472572  1.0000
  Ti  Ti2       1.0  0.9414260632970649  0.5839249940861526  0.6503983328695825  1.0000
  O   O3        1.0  0.3235733645935943  0.22622326721569921  0.159471014791469  1.0000
  O   O4        1.0  0.1623497955543254  0.7591111422513241  0.888314385138763  1.0000
  O   O5        1.0  0.9606624079667767  0.7276287031213903  0.4273665195451547  1.0000
  O   O6        1.0  0.6076833807183009  0.575337323163911  0.6454343689624226  1.0000
