data_image857
_chemical_formula_structural       OBaO2Ti2O3Ba
_chemical_formula_sum              "O6 Ba2 Ti2"
_cell_length_a       4.018706801688876
_cell_length_b       6.244548076382643
_cell_length_c       8.013699531555176
_cell_angle_alpha    112.77100694188084
_cell_angle_beta     90.00226329710381
_cell_angle_gamma    90.02263775224247

_space_group_name_H-M_alt    "P 1"
_space_group_IT_number       1

loop_
  _space_group_symop_operation_xyz
  'x, y, z'

loop_
  _atom_site_type_symbol
  _atom_site_label
  _atom_site_symmetry_multiplicity
  _atom_site_fract_x
  _atom_site_fract_y
  _atom_site_fract_z
  _atom_site_occupancy
  O   O1        1.0  0.9778894643115733  0.3868902013623349  0.7564785449630071  1.0000
  Ba  Ba1       1.0  0.4779115859680041  0.6844287394508223  0.805359248116592  1.0000
  O   O2        1.0  0.47792708094263603  0.058124513708634015  0.5514171138669293  1.0000
  O   O3        1.0  0.9778695134886487  0.951533032023689  0.3375031532843929  1.0000
  Ti  Ti1       1.0  0.9778964843986732  0.08547011864788372  0.606645235410655  1.0000
  Ti  Ti2       1.0  0.4778385462471821  0.9231664288214553  0.2823096490315259  1.0000
  O   O4        1.0  0.47783836052712386  0.621376400800953  0.13363916116584176  1.0000
  O   O5        1.0  0.9779923535977068  0.9324967945742568  0.7560415541709293  1.0000
  O   O6        1.0  0.47782651645617047  0.07462471101494449  0.13175046419367603  1.0000
  Ba  Ba2       1.0  0.9778402241140679  0.32352466602010177  0.08369904608845324  1.0000
