data_image143
_chemical_formula_structural       BaTiBa2O3TiO4
_chemical_formula_sum              "Ba3 Ti2 O7"
_cell_length_a       3.7217159678333833
_cell_length_b       5.65360220879298
_cell_length_c       10.109271049499512
_cell_angle_alpha    106.184537585805
_cell_angle_beta     100.58508108328668
_cell_angle_gamma    89.98201870508625

_space_group_name_H-M_alt    "P 1"
_space_group_IT_number       1

loop_
  _space_group_symop_operation_xyz
  'x, y, z'

loop_
  _atom_site_type_symbol
  _atom_site_label
  _atom_site_symmetry_multiplicity
  _atom_site_fract_x
  _atom_site_fract_y
  _atom_site_fract_z
  _atom_site_occupancy
  Ba  Ba1       1.0  0.6941225190819904  0.6819303823676832  0.6513737097585757  1.0000
  Ti  Ti1       1.0  0.9957235455707805  0.5103639927406672  0.2545775363326487  1.0000
  Ba  Ba2       1.0  0.1005505116911233  0.08767528049011775  0.4627671028186564  1.0000
  Ba  Ba3       1.0  0.39704876436889747  0.8761156959340436  0.057061491361298615  1.0000
  O   O1        1.0  0.10102305933859193  0.5902276337738009  0.4648989896162724  1.0000
  O   O2        1.0  0.6935944924470647  0.18195168367987363  0.6492541670402502  1.0000
  O   O3        1.0  0.28797603530025867  0.44060304663689526  0.8384046589675548  1.0000
  Ti  Ti2       1.0  0.7981777823241261  0.3123863413888662  0.8594894037706945  1.0000
  O   O4        1.0  0.8971527844989865  0.5264987469633106  0.05694194028929062  1.0000
  O   O5        1.0  0.8139552502410049  0.01838092143947452  0.8912140745513589  1.0000
  O   O6        1.0  0.5062829395145216  0.6595645025807043  0.2754716857508975  1.0000
  O   O7        1.0  0.9799934000205146  0.18479612917700156  0.22298484278011552  1.0000
