data_image883
_chemical_formula_structural       Ti2O2BaTiO6
_chemical_formula_sum              "Ti3 O8 Ba1"
_cell_length_a       3.8987302549626173
_cell_length_b       6.680121652178166
_cell_length_c       6.7275166511535645
_cell_angle_alpha    109.59181726993836
_cell_angle_beta     106.98122501432398
_cell_angle_gamma    90.08591940886413

_space_group_name_H-M_alt    "P 1"
_space_group_IT_number       1

loop_
  _space_group_symop_operation_xyz
  'x, y, z'

loop_
  _atom_site_type_symbol
  _atom_site_label
  _atom_site_symmetry_multiplicity
  _atom_site_fract_x
  _atom_site_fract_y
  _atom_site_fract_z
  _atom_site_occupancy
  Ti  Ti1       1.0  0.260403944158639  0.2406266775007278  0.16749899732876652  1.0000
  Ti  Ti2       1.0  0.02256375279909033  0.8543625102705471  0.6922111939687621  1.0000
  O   O1        1.0  0.4203028456555227  0.24560568522203793  0.48583987820998853  1.0000
  O   O2        1.0  0.8908182448982142  0.9231984616103434  0.42868451163018984  1.0000
  Ba  Ba1       1.0  0.6832939731198298  0.6325320696175153  0.012423042012941353  1.0000
  Ti  Ti3       1.0  0.9434652918154597  0.22611281509895648  0.5320174327382492  1.0000
  O   O3        1.0  0.28278590438257467  0.5148647273618541  0.21051523010498654  1.0000
  O   O4        1.0  0.003740512854129529  0.55581205703401  0.6524509773775259  1.0000
  O   O5        1.0  0.18056517669418637  0.9186033946382884  0.007445825081795179  1.0000
  O   O6        1.0  0.7822885121766441  0.22219040591920944  0.21084429732918772  1.0000
  O   O7        1.0  0.08691959529517032  0.20090452154995192  0.8182787229427452  1.0000
  O   O8        1.0  0.5234471331317978  0.8412110500349466  0.6937077244822164  1.0000
