data_image120
_chemical_formula_structural       Ba2O3TiO
_chemical_formula_sum              "Ba2 O4 Ti1"
_cell_length_a       4.044962442015841
_cell_length_b       4.047036260220802
_cell_length_c       7.332304954528809
_cell_angle_alpha    105.94391663434016
_cell_angle_beta     105.9144505970953
_cell_angle_gamma    89.99324785002162

_space_group_name_H-M_alt    "P 1"
_space_group_IT_number       1

loop_
  _space_group_symop_operation_xyz
  'x, y, z'

loop_
  _atom_site_type_symbol
  _atom_site_label
  _atom_site_symmetry_multiplicity
  _atom_site_fract_x
  _atom_site_fract_y
  _atom_site_fract_z
  _atom_site_occupancy
  Ba  Ba1       1.0  0.09257271771611453  0.488173942637654  0.5395527794913756  1.0000
  Ba  Ba2       1.0  0.8059758466183103  0.2013790594168661  0.9652626461572048  1.0000
  O   O1        1.0  0.9495580798831083  0.8449000323553099  0.25233152664442793  1.0000
  O   O2        1.0  0.5963489334186755  0.9919761395530245  0.5468311380101322  1.0000
  O   O3        1.0  0.3022051447913125  0.6975029423311361  0.9575639184644763  1.0000
  Ti  Ti1       1.0  0.4489747262074778  0.8446250265120286  0.2523406125244506  1.0000
  O   O4        1.0  0.44937906148613754  0.3449483810787945  0.25229625402700334  1.0000
