data_image778
_chemical_formula_structural       BaO2Ba2OBa2OTiO2
_chemical_formula_sum              "Ba5 O6 Ti1"
_cell_length_a       6.5036618626787766
_cell_length_b       6.5032739645866195
_cell_length_c       7.204866409301758
_cell_angle_alpha    90.00081529695005
_cell_angle_beta     89.98475752151127
_cell_angle_gamma    119.95767163484594

_space_group_name_H-M_alt    "P 1"
_space_group_IT_number       1

loop_
  _space_group_symop_operation_xyz
  'x, y, z'

loop_
  _atom_site_type_symbol
  _atom_site_label
  _atom_site_symmetry_multiplicity
  _atom_site_fract_x
  _atom_site_fract_y
  _atom_site_fract_z
  _atom_site_occupancy
  Ba  Ba1       1.0  0.726922279771703  0.16907510018820202  0.12892884967967466  1.0000
  O   O1        1.0  0.6537486247792477  0.8358242957294012  0.3757537162281393  1.0000
  O   O2        1.0  0.7730277825749756  0.5489044462468183  0.8759870851763826  1.0000
  Ba  Ba2       1.0  0.06026141664562512  0.835946505163915  0.375853649323526  1.0000
  Ba  Ba3       1.0  0.7270470772066611  0.16927740925828882  0.6227415255579667  1.0000
  O   O3        1.0  0.3472282393114296  0.8366367116623898  0.8760521844371345  1.0000
  Ba  Ba4       1.0  0.3936786640801678  0.5026093568395361  0.6227512573066082  1.0000
  Ba  Ba5       1.0  0.39356010897586385  0.5025706663245252  0.12906062999808954  1.0000
  O   O4        1.0  0.4670034227886915  0.24241527137490054  0.37601152953327494  1.0000
  Ti  Ti1       1.0  0.05993410730874672  0.8350061785229063  0.8758725080023468  1.0000
  O   O5        1.0  0.060711608760694064  0.12170105660983675  0.8755462427074874  1.0000
  O   O6        1.0  0.0602955799458638  0.4295861762850242  0.3758120468212699  1.0000
