data_image700
_chemical_formula_structural       Ba2OBa2Ti2O4TiO4
_chemical_formula_sum              "Ba4 O9 Ti3"
_cell_length_a       4.0241550995254105
_cell_length_b       4.023923802965611
_cell_length_c       15.322008132934572
_cell_angle_alpha    97.51939923174824
_cell_angle_beta     97.51529398885275
_cell_angle_gamma    89.9479223788792

_space_group_name_H-M_alt    "P 1"
_space_group_IT_number       1

loop_
  _space_group_symop_operation_xyz
  'x, y, z'

loop_
  _atom_site_type_symbol
  _atom_site_label
  _atom_site_symmetry_multiplicity
  _atom_site_fract_x
  _atom_site_fract_y
  _atom_site_fract_z
  _atom_site_occupancy
  Ba  Ba1       1.0  0.4784970773095872  0.3515518019090358  0.48064562173667247  1.0000
  Ba  Ba2       1.0  0.6106614854475657  0.48355292522584403  0.7451117792791067  1.0000
  O   O1        1.0  0.5459670227319886  0.9189639498451895  0.6159360638387097  1.0000
  Ba  Ba3       1.0  0.34140758566003776  0.21436727986395884  0.2065332574200766  1.0000
  Ba  Ba4       1.0  0.20795331976963896  0.08071406229365147  0.9392066547382574  1.0000
  Ti  Ti1       1.0  0.9145657423442505  0.7875449658221644  0.35274373652693586  1.0000
  Ti  Ti2       1.0  0.048955130341579015  0.9218948993282328  0.6211467603908047  1.0000
  O   O2        1.0  0.1124202306493052  0.9852854921002752  0.7489728516726197  1.0000
  O   O3        1.0  0.7036296568913648  0.5762738454758206  0.9302703574868518  1.0000
  O   O4        1.0  0.0460608630427791  0.4188719651539994  0.6159382775497559  1.0000
  O   O5        1.0  0.7742906079816491  0.147077927583179  0.0722673606630873  1.0000
  Ti  Ti3       1.0  0.7674671682024476  0.640284299878641  0.058560605568385826  1.0000
  O   O6        1.0  0.97691432471489  0.849899395547439  0.47745010057358517  1.0000
  O   O7        1.0  0.27425860822096765  0.6471182962014297  0.07224704306772249  1.0000
  O   O8        1.0  0.40580544291455667  0.7786291801542506  0.33512071062135257  1.0000
  O   O9        1.0  0.9057285822362796  0.2787341516866946  0.33514549826033607  1.0000
