data_image625
_chemical_formula_structural       TiOBaOTiOTiBa2O6
_chemical_formula_sum              "Ti3 O9 Ba3"
_cell_length_a       5.396474787682443
_cell_length_b       6.499238588605922
_cell_length_c       9.124560356140137
_cell_angle_alpha    78.28679488706106
_cell_angle_beta     76.873178271053
_cell_angle_gamma    67.69163288252123

_space_group_name_H-M_alt    "P 1"
_space_group_IT_number       1

loop_
  _space_group_symop_operation_xyz
  'x, y, z'

loop_
  _atom_site_type_symbol
  _atom_site_label
  _atom_site_symmetry_multiplicity
  _atom_site_fract_x
  _atom_site_fract_y
  _atom_site_fract_z
  _atom_site_occupancy
  Ti  Ti1       1.0  0.7512991195963229  0.8894764839777582  0.7001604615256082  1.0000
  O   O1        1.0  0.6472055087769222  0.621166470072157  0.7337480248520424  1.0000
  Ba  Ba1       1.0  0.12060275873267316  0.3162737100985473  0.6085400744168268  1.0000
  O   O2        1.0  0.3952046067300039  0.003752879495361241  0.8222093014462468  1.0000
  Ti  Ti2       1.0  0.2712525596901626  0.7664612547254409  0.8083391735086375  1.0000
  O   O3        1.0  0.6381058189374987  0.7845077225489901  0.19688810255929098  1.0000
  Ti  Ti3       1.0  0.9351717995085775  0.532249632697295  0.16466941058743254  1.0000
  Ba  Ba2       1.0  0.11579547825568057  0.8798656873485275  0.32128418347840604  1.0000
  Ba  Ba3       1.0  0.5649141136710779  0.18417404615282754  0.029730642555303808  1.0000
  O   O4        1.0  0.18573130450861858  0.6068136778836224  0.9925439078193006  1.0000
  O   O5        1.0  0.14625758920795312  0.6954880974144069  0.6494333552889913  1.0000
  O   O6        1.0  0.9127082796437639  0.018354822347064956  0.8034530731965652  1.0000
  O   O7        1.0  0.9214977213261967  0.2665773654068822  0.13962341688716684  1.0000
  O   O8        1.0  0.6928369573776118  0.06235994313454836  0.526764878468267  1.0000
  O   O9        1.0  0.12204047483238863  0.4719379027521328  0.31769682909755503  1.0000
