data_image376
_chemical_formula_structural       OBaOTi
_chemical_formula_sum              "O2 Ba1 Ti1"
_cell_length_a       4.0104529180246455
_cell_length_b       4.011109019127739
_cell_length_c       4.134286403656006
_cell_angle_alpha    89.984655067517
_cell_angle_beta     90.01671597926729
_cell_angle_gamma    89.98771499390169

_space_group_name_H-M_alt    "P 1"
_space_group_IT_number       1

loop_
  _space_group_symop_operation_xyz
  'x, y, z'

loop_
  _atom_site_type_symbol
  _atom_site_label
  _atom_site_symmetry_multiplicity
  _atom_site_fract_x
  _atom_site_fract_y
  _atom_site_fract_z
  _atom_site_occupancy
  O   O1        1.0  0.47333360347963577  0.5179178333469775  0.7821892948458006  1.0000
  Ba  Ba1       1.0  0.47333687860361146  0.01738201244372236  0.2819987735440133  1.0000
  O   O2        1.0  0.9733485678954386  0.01780953721507472  0.7824589796755504  1.0000
  Ti  Ti1       1.0  0.9738294583522733  0.5176954537041734  0.7822862622815354  1.0000
