data_image837
_chemical_formula_structural       Ba3OTiO2TiO4
_chemical_formula_sum              "Ba3 O7 Ti2"
_cell_length_a       4.069287866356506
_cell_length_b       4.079205532345849
_cell_length_c       11.071682929992676
_cell_angle_alpha    100.66225539277771
_cell_angle_beta     100.60712953829756
_cell_angle_gamma    89.8673258941055

_space_group_name_H-M_alt    "P 1"
_space_group_IT_number       1

loop_
  _space_group_symop_operation_xyz
  'x, y, z'

loop_
  _atom_site_type_symbol
  _atom_site_label
  _atom_site_symmetry_multiplicity
  _atom_site_fract_x
  _atom_site_fract_y
  _atom_site_fract_z
  _atom_site_occupancy
  Ba  Ba1       1.0  0.7976409774877612  0.6218389274396515  0.3007471990482882  1.0000
  Ba  Ba2       1.0  0.9816132114367784  0.8057320152815992  0.6667774343167231  1.0000
  Ba  Ba3       1.0  0.6153787366080691  0.4394361258936204  0.9344747659637666  1.0000
  O   O1        1.0  0.9144635989674149  0.22843939455010448  0.48956111813303854  1.0000
  Ti  Ti1       1.0  0.3795049578243921  0.20287910017685618  0.4903271524043155  1.0000
  O   O2        1.0  0.3142882664615292  0.1391703417344231  0.30073144116505685  1.0000
  O   O3        1.0  0.4034486273597031  0.7399595464797941  0.489612357543003  1.0000
  Ti  Ti2       1.0  0.18992803008104867  0.013370485687423897  0.11102148554376978  1.0000
  O   O4        1.0  0.21482799366369215  0.5511309219813851  0.11192458134148114  1.0000
  O   O5        1.0  0.12677129472316803  0.9509592644692033  0.9282928705584651  1.0000
  O   O6        1.0  0.7257461295304352  0.0396731348888614  0.11194889881049179  1.0000
  O   O7        1.0  0.49837372231156524  0.3235180008407508  0.6731356387727586  1.0000
