data_image69
_chemical_formula_structural       BaTiO3
_chemical_formula_sum              "Ba1 Ti1 O3"
_cell_length_a       3.9681028129006317
_cell_length_b       4.10338830609475
_cell_length_c       4.124669075012207
_cell_angle_alpha    89.57928335637799
_cell_angle_beta     90.01405220421066
_cell_angle_gamma    90.02465265884922

_space_group_name_H-M_alt    "P 1"
_space_group_IT_number       1

loop_
  _space_group_symop_operation_xyz
  'x, y, z'

loop_
  _atom_site_type_symbol
  _atom_site_label
  _atom_site_symmetry_multiplicity
  _atom_site_fract_x
  _atom_site_fract_y
  _atom_site_fract_z
  _atom_site_occupancy
  Ba  Ba1       1.0  0.208106685787425  0.37512646889527773  0.6136125619781877  1.0000
  Ti  Ti1       1.0  0.7083781367319334  0.8585597140365839  0.09624573291144273  1.0000
  O   O1        1.0  0.7079512556977141  0.8895745000968079  0.6483482137486564  1.0000
  O   O2        1.0  0.20787386537137625  0.8979507351343208  0.1373683109593593  1.0000
  O   O3        1.0  0.7080044939252982  0.40702596400071595  0.13018797530700463  1.0000
