data_image900
_chemical_formula_structural       BaOBaO2TiBaTiOTiO4
_chemical_formula_sum              "Ba3 O8 Ti3"
_cell_length_a       5.715688970168426
_cell_length_b       6.210277904234149
_cell_length_c       7.994995594024659
_cell_angle_alpha    89.108724264218
_cell_angle_beta     76.45713029153609
_cell_angle_gamma    74.64967721296185

_space_group_name_H-M_alt    "P 1"
_space_group_IT_number       1

loop_
  _space_group_symop_operation_xyz
  'x, y, z'

loop_
  _atom_site_type_symbol
  _atom_site_label
  _atom_site_symmetry_multiplicity
  _atom_site_fract_x
  _atom_site_fract_y
  _atom_site_fract_z
  _atom_site_occupancy
  Ba  Ba1       1.0  0.5466756404789105  0.15133897825131296  0.22490644256123762  1.0000
  O   O1        1.0  0.5035041264105148  0.8457982933704368  0.49195608963023457  1.0000
  Ba  Ba2       1.0  0.21155313918685276  0.1708367423801837  0.7944193488505156  1.0000
  O   O2        1.0  0.6919196021829663  0.8456454472524175  0.9459919523731882  1.0000
  O   O3        1.0  0.7883799261872034  0.46964579038841797  0.6873620311851286  1.0000
  Ti  Ti1       1.0  0.5010066493848562  0.5904127888306021  0.6075961933937357  1.0000
  Ba  Ba3       1.0  0.9946096251792459  0.7787398447245454  0.4963819497775452  1.0000
  Ti  Ti2       1.0  0.003809981199709105  0.6677969485516866  0.018260985443613313  1.0000
  O   O4        1.0  0.36159849357164314  0.4025178006450861  0.5166627431617534  1.0000
  Ti  Ti3       1.0  0.5706271845313399  0.5870502859615411  0.9284938501931803  1.0000
  O   O5        1.0  0.9884334331961631  0.8621651674056732  0.18703053628033192  1.0000
  O   O6        1.0  0.8370493618517518  0.4301881661333121  0.04325864308096997  1.0000
  O   O7        1.0  0.23785267482361186  0.7282658458633643  0.8054958621709173  1.0000
  O   O8        1.0  0.3208203448738646  0.431830852282068  0.028566092642770824  1.0000
