data_image970
_chemical_formula_structural       OBaTiO
_chemical_formula_sum              "O2 Ba1 Ti1"
_cell_length_a       4.024257341339813
_cell_length_b       4.120468250012715
_cell_length_c       4.028687000274658
_cell_angle_alpha    89.95044948548939
_cell_angle_beta     89.98393106809753
_cell_angle_gamma    90.0150425822391

_space_group_name_H-M_alt    "P 1"
_space_group_IT_number       1

loop_
  _space_group_symop_operation_xyz
  'x, y, z'

loop_
  _atom_site_type_symbol
  _atom_site_label
  _atom_site_symmetry_multiplicity
  _atom_site_fract_x
  _atom_site_fract_y
  _atom_site_fract_z
  _atom_site_occupancy
  O   O1        1.0  0.9103289627671285  0.19046576088525555  0.9324781743699594  1.0000
  Ba  Ba1       1.0  0.9103636881576047  0.6905810883573209  0.4325030671691754  1.0000
  Ti  Ti1       1.0  0.4106588327674371  0.19076392634275488  0.9324228544934492  1.0000
  O   O2        1.0  0.41042626998497256  0.19003028310911227  0.4324999886211173  1.0000
