data_image190
_chemical_formula_structural       OTiBaO
_chemical_formula_sum              "O2 Ti1 Ba1"
_cell_length_a       3.3216592054230127
_cell_length_b       3.323112378197023
_cell_length_c       6.296657085418702
_cell_angle_alpha    74.73309616698714
_cell_angle_beta     74.73609439966815
_cell_angle_gamma    60.03441936486835

_space_group_name_H-M_alt    "P 1"
_space_group_IT_number       1

loop_
  _space_group_symop_operation_xyz
  'x, y, z'

loop_
  _atom_site_type_symbol
  _atom_site_label
  _atom_site_symmetry_multiplicity
  _atom_site_fract_x
  _atom_site_fract_y
  _atom_site_fract_z
  _atom_site_occupancy
  O   O1        1.0  0.21983174147470408  0.6971411101677869  0.9528754008391296  1.0000
  Ti  Ti1       1.0  0.4977041526986755  0.9754483069448247  0.11860248191766651  1.0000
  Ba  Ba1       1.0  0.9978102416704052  0.47517823845621854  0.6186167463619916  1.0000
  O   O2        1.0  0.7758030523068304  0.2534982377185477  0.2843462863260411  1.0000
