data_image306
_chemical_formula_structural       Ba2O3Ti
_chemical_formula_sum              "Ba2 O3 Ti1"
_cell_length_a       3.9756459289794686
_cell_length_b       3.9792513857657785
_cell_length_c       9.062653541564943
_cell_angle_alpha    102.78978485646977
_cell_angle_beta     102.71728193568892
_cell_angle_gamma    89.9473212858549

_space_group_name_H-M_alt    "P 1"
_space_group_IT_number       1

loop_
  _space_group_symop_operation_xyz
  'x, y, z'

loop_
  _atom_site_type_symbol
  _atom_site_label
  _atom_site_symmetry_multiplicity
  _atom_site_fract_x
  _atom_site_fract_y
  _atom_site_fract_z
  _atom_site_occupancy
  Ba  Ba1       1.0  0.871755054928992  0.18677510985282786  0.9210747936949679  1.0000
  Ba  Ba2       1.0  0.1114910887852493  0.42753268220159063  0.39939269949478745  1.0000
  O   O1        1.0  0.9858572505238524  0.8013836504315354  0.14875378906206596  1.0000
  O   O2        1.0  0.607646038398915  0.9236797260281192  0.39169500890953746  1.0000
  O   O3        1.0  0.48602392662513166  0.30150010606904354  0.14904140835330343  1.0000
  Ti  Ti1       1.0  0.49609795297528764  0.8116482620443624  0.16917936743818024  1.0000
