data_image21
_chemical_formula_structural       TiO2Ba
_chemical_formula_sum              "Ti1 O2 Ba1"
_cell_length_a       3.2844655631076622
_cell_length_b       3.285722937339048
_cell_length_c       6.502832412719727
_cell_angle_alpha    75.24214157407513
_cell_angle_beta     75.26195666091819
_cell_angle_gamma    59.90709667618106

_space_group_name_H-M_alt    "P 1"
_space_group_IT_number       1

loop_
  _space_group_symop_operation_xyz
  'x, y, z'

loop_
  _atom_site_type_symbol
  _atom_site_label
  _atom_site_symmetry_multiplicity
  _atom_site_fract_x
  _atom_site_fract_y
  _atom_site_fract_z
  _atom_site_occupancy
  Ti  Ti1       1.0  0.7195442132896073  0.8632999919529459  0.5156185138424123  1.0000
  O   O1        1.0  0.3323942819463571  0.4760903497258708  0.6769026164205866  1.0000
  O   O2        1.0  0.10849640312826206  0.25242657428151744  0.34877590877514386  1.0000
  Ba  Ba1       1.0  0.8898495389559434  0.033830967230655  0.004950322139573027  1.0000
