data_image602
_chemical_formula_structural       BaTi2O2BaO5
_chemical_formula_sum              "Ba2 Ti2 O7"
_cell_length_a       5.931083215702509
_cell_length_b       5.934409364782834
_cell_length_c       6.547085762023927
_cell_angle_alpha    98.11502633319363
_cell_angle_beta     115.5509954795352
_cell_angle_gamma    111.54427449137181

_space_group_name_H-M_alt    "P 1"
_space_group_IT_number       1

loop_
  _space_group_symop_operation_xyz
  'x, y, z'

loop_
  _atom_site_type_symbol
  _atom_site_label
  _atom_site_symmetry_multiplicity
  _atom_site_fract_x
  _atom_site_fract_y
  _atom_site_fract_z
  _atom_site_occupancy
  Ba  Ba1       1.0  0.10885932444289435  0.708273816771601  0.6162199084436297  1.0000
  Ti  Ti1       1.0  0.6105560052217579  0.41498243127529894  0.8501851029623229  1.0000
  Ti  Ti2       1.0  0.5987212329179671  0.950131631174631  0.37443160640648554  1.0000
  O   O1        1.0  0.1996120315866609  0.24893259605974177  0.7745691032274183  1.0000
  O   O2        1.0  0.9365262608270314  0.5239648347411086  0.12710578907969738  1.0000
  Ba  Ba2       1.0  0.09731241526568915  0.16672572989007017  0.1326832725091599  1.0000
  O   O3        1.0  0.5315592639910445  0.1312899952573536  0.5979962120406721  1.0000
  O   O4        1.0  0.65094239881618  0.6903514517330216  0.7709235428607705  1.0000
  O   O5        1.0  0.574389939455827  0.6414669368739424  0.3106962202487236  1.0000
  O   O6        1.0  0.008310860036384328  0.19607144196699233  0.5159325167707857  1.0000
  O   O7        1.0  0.463192056865502  0.010124350712495511  0.10145032876624094  1.0000
