data_image365
_chemical_formula_structural       BaOTiOBaTiO2BaO3
_chemical_formula_sum              "Ba3 O7 Ti2"
_cell_length_a       3.9624099791115492
_cell_length_b       3.9622949000621843
_cell_length_c       12.51345157623291
_cell_angle_alpha    90.0414480923762
_cell_angle_beta     90.00314439146554
_cell_angle_gamma    90.01152503313618

_space_group_name_H-M_alt    "P 1"
_space_group_IT_number       1

loop_
  _space_group_symop_operation_xyz
  'x, y, z'

loop_
  _atom_site_type_symbol
  _atom_site_label
  _atom_site_symmetry_multiplicity
  _atom_site_fract_x
  _atom_site_fract_y
  _atom_site_fract_z
  _atom_site_occupancy
  Ba  Ba1       1.0  0.8578163516710664  0.7012879014127724  0.7750562679271975  1.0000
  O   O1        1.0  0.35657169598008764  0.19885538067483957  0.4413614045828204  1.0000
  Ti  Ti1       1.0  0.8405565643264519  0.6836298465883391  0.07523471951295484  1.0000
  O   O2        1.0  0.8550537591883011  0.6973485606102853  0.22181597747250925  1.0000
  Ba  Ba2       1.0  0.8564135105478424  0.6988165555055295  0.4555427174346026  1.0000
  Ti  Ti2       1.0  0.35714769198199703  0.2000893506484614  0.6128378615439007  1.0000
  O   O3        1.0  0.8684951122397617  0.21413716124329768  0.05725648611305546  1.0000
  O   O4        1.0  0.8571071567817099  0.19986284699689394  0.6099400751492743  1.0000
  Ba  Ba3       1.0  0.3499976090082741  0.19313080180745368  0.21973379037212543  1.0000
  O   O5        1.0  0.372030882433928  0.7106362522623397  0.05755527360783763  1.0000
  O   O6        1.0  0.3573293298032291  0.20050998210604054  0.7658088770444302  1.0000
  O   O7        1.0  0.3571184232421589  0.6998534359460704  0.6099364673008625  1.0000
