data_image703
_chemical_formula_structural       Ba2O2BaOTiOBa2O5TiOBa
_chemical_formula_sum              "Ba6 O10 Ti2"
_cell_length_a       7.6475661134912185
_cell_length_b       7.67639036066508
_cell_length_c       7.673029899597169
_cell_angle_alpha    62.679594500189886
_cell_angle_beta     62.79994248676039
_cell_angle_gamma    62.68614554192348

_space_group_name_H-M_alt    "P 1"
_space_group_IT_number       1

loop_
  _space_group_symop_operation_xyz
  'x, y, z'

loop_
  _atom_site_type_symbol
  _atom_site_label
  _atom_site_symmetry_multiplicity
  _atom_site_fract_x
  _atom_site_fract_y
  _atom_site_fract_z
  _atom_site_occupancy
  Ba  Ba1       1.0  0.9550531315423014  0.2765160593490866  0.8716282822342459  1.0000
  Ba  Ba2       1.0  0.43088217790685995  0.6380395614237441  0.5434455620225962  1.0000
  O   O1        1.0  0.03491869579906962  0.7934888348032698  0.5508206254768329  1.0000
  O   O2        1.0  0.8195032505535532  0.5733574230577719  0.33474074468194326  1.0000
  Ba  Ba3       1.0  0.35595853488009543  0.7106637063220174  0.03769332265482922  1.0000
  O   O3        1.0  0.4380152074727076  0.9483622536864919  0.1445537403069824  1.0000
  Ti  Ti1       1.0  0.9320810631019171  0.6864404371365928  0.44712550412219715  1.0000
  O   O4        1.0  0.20754215939073187  0.9625875892995795  0.7220823654752263  1.0000
  Ba  Ba4       1.0  0.8829375024863628  0.7824543753893003  0.9464049791148336  1.0000
  Ba  Ba5       1.0  0.5231981342166017  0.11067223681221931  0.4730633463225019  1.0000
  O   O5        1.0  0.19340791182366687  0.38518542888727747  0.9523981659012277  1.0000
  O   O6        1.0  0.6317719315391529  0.19313756624049444  0.7105228281477349  1.0000
  O   O7        1.0  0.16767672016683993  0.44342092795701743  0.45101169055925944  1.0000
  O   O8        1.0  0.6881668851234689  0.6882575769394775  0.6821166230505219  1.0000
  O   O9        1.0  0.9349312175219141  0.9200945843514686  0.20244112264208053  1.0000
  Ti  Ti2       1.0  0.4520087446259988  0.20694839340889806  0.9680679635095696  1.0000
  O   O10       1.0  0.5496564884189586  0.3054410919124277  0.0691644426201297  1.0000
  Ba  Ba6       1.0  0.029453342723520425  0.18621735614361257  0.39849671072260723  1.0000
