data_image1020
_chemical_formula_structural       Ba4OBaO5TiOBaOTi
_chemical_formula_sum              "Ba6 O8 Ti2"
_cell_length_a       6.037254513453657
_cell_length_b       6.377108114110033
_cell_length_c       8.61552906036377
_cell_angle_alpha    89.8633509170429
_cell_angle_beta     89.90237860696341
_cell_angle_gamma    89.81585378618065

_space_group_name_H-M_alt    "P 1"
_space_group_IT_number       1

loop_
  _space_group_symop_operation_xyz
  'x, y, z'

loop_
  _atom_site_type_symbol
  _atom_site_label
  _atom_site_symmetry_multiplicity
  _atom_site_fract_x
  _atom_site_fract_y
  _atom_site_fract_z
  _atom_site_occupancy
  Ba  Ba1       1.0  0.5244779239632577  0.3015239546520202  0.4294389961387464  1.0000
  Ba  Ba2       1.0  0.5284622593249201  0.7902162503667133  0.6676942102434084  1.0000
  Ba  Ba3       1.0  0.027824390296205023  0.8485402486522633  0.4072673823087857  1.0000
  Ba  Ba4       1.0  0.023687748991229943  0.3598675303744285  0.16883300979952948  1.0000
  O   O1        1.0  0.5248080591588011  0.7108954889729935  0.35903643972112004  1.0000
  Ba  Ba5       1.0  0.524936951587191  0.3009394948492127  0.9083902843074653  1.0000
  O   O2        1.0  0.784166735327733  0.12385482470484693  0.6698809900066971  1.0000
  O   O3        1.0  0.025630641233314114  0.43941940646785604  0.8595400645607609  1.0000
  O   O4        1.0  0.2839974952525662  0.027340575440740443  0.16678355225012723  1.0000
  O   O5        1.0  0.5260771043416821  0.7111445009469689  0.9769895478497812  1.0000
  O   O6        1.0  0.7679905741776358  0.02632326611225882  0.16691868201882673  1.0000
  Ti  Ti1       1.0  0.02574008501531632  0.3040207979489751  0.6687289054819103  1.0000
  O   O7        1.0  0.2679539491548154  0.12292096626427906  0.6698444053605013  1.0000
  Ba  Ba6       1.0  0.0273076991364492  0.8492404473211249  0.9280208390753011  1.0000
  O   O8        1.0  0.026908507250039293  0.4392101311327429  0.47743220651635193  1.0000
  Ti  Ti2       1.0  0.5262799868198853  0.8463571010151422  0.1678607917276262  1.0000
