data_image237
_chemical_formula_structural       Ba2OTiBaO6Ti
_chemical_formula_sum              "Ba3 O7 Ti2"
_cell_length_a       3.981636359868442
_cell_length_b       4.053536795498712
_cell_length_c       11.536206245422362
_cell_angle_alpha    100.05874061097126
_cell_angle_beta     89.95018993651271
_cell_angle_gamma    89.92783472361228

_space_group_name_H-M_alt    "P 1"
_space_group_IT_number       1

loop_
  _space_group_symop_operation_xyz
  'x, y, z'

loop_
  _atom_site_type_symbol
  _atom_site_label
  _atom_site_symmetry_multiplicity
  _atom_site_fract_x
  _atom_site_fract_y
  _atom_site_fract_z
  _atom_site_occupancy
  Ba  Ba1       1.0  0.9058844893834498  0.3831106227722057  0.5744507612544564  1.0000
  Ba  Ba2       1.0  0.9073208225991535  0.036176904250434204  0.8789043315357906  1.0000
  O   O1        1.0  0.40568800110288944  0.8855031538064402  0.5800400456459626  1.0000
  Ti  Ti1       1.0  0.4065887492485271  0.6196043957666513  0.04512831845451977  1.0000
  Ba  Ba3       1.0  0.9066411920775127  0.20966390696548637  0.22665738530181723  1.0000
  O   O2        1.0  0.40640043847594803  0.2997236888356148  0.40800256359452175  1.0000
  O   O3        1.0  0.4075755095326396  0.5333877125629941  0.8734229172270399  1.0000
  O   O4        1.0  0.9070517823713551  0.6191236411680503  0.04596968608704443  1.0000
  O   O5        1.0  0.9062180720381311  0.7996270380017423  0.4074517370233536  1.0000
  O   O6        1.0  0.4068203579555277  0.1184868160913761  0.04523978912499347  1.0000
  O   O7        1.0  0.4065539508373016  0.7093104336433717  0.2266954259114664  1.0000
  Ti  Ti2       1.0  0.4064493372908142  0.8004933979638994  0.40832873629330474  1.0000
