data_image905
_chemical_formula_structural       TiBa2O2BaO2
_chemical_formula_sum              "Ti1 Ba3 O4"
_cell_length_a       5.667992464226495
_cell_length_b       5.666543698686074
_cell_length_c       6.963365077972412
_cell_angle_alpha    113.96809249975237
_cell_angle_beta     113.98636265635776
_cell_angle_gamma    89.8259621945929

_space_group_name_H-M_alt    "P 1"
_space_group_IT_number       1

loop_
  _space_group_symop_operation_xyz
  'x, y, z'

loop_
  _atom_site_type_symbol
  _atom_site_label
  _atom_site_symmetry_multiplicity
  _atom_site_fract_x
  _atom_site_fract_y
  _atom_site_fract_z
  _atom_site_occupancy
  Ti  Ti1       1.0  0.16138071027469844  0.7578435467811386  0.8361914088621288  1.0000
  Ba  Ba1       1.0  0.661727425623824  0.2584585214878874  0.8366631617878537  1.0000
  Ba  Ba2       1.0  0.41174912700416955  0.508342677326566  0.336233061523676  1.0000
  O   O1        1.0  0.2577662446507203  0.4734435927351618  0.6480569244315683  1.0000
  O   O2        1.0  0.877007673049111  0.8544766692114948  0.6482624698311144  1.0000
  Ba  Ba3       1.0  0.9117754536171926  0.008450318118871415  0.33644922946115513  1.0000
  O   O3        1.0  0.06513325318275519  0.6614078772360442  0.024104009436079512  1.0000
  O   O4        1.0  0.4450008286084398  0.04133017872686821  0.023775193383361485  1.0000
