data_image352
_chemical_formula_structural       Ba3OBaTiO5TiOTiO2
_chemical_formula_sum              "Ba4 O9 Ti3"
_cell_length_a       6.404862332526175
_cell_length_b       7.843724237050537
_cell_length_c       7.403315067291259
_cell_angle_alpha    62.603223162859294
_cell_angle_beta     71.80506812882015
_cell_angle_gamma    82.0548116617975

_space_group_name_H-M_alt    "P 1"
_space_group_IT_number       1

loop_
  _space_group_symop_operation_xyz
  'x, y, z'

loop_
  _atom_site_type_symbol
  _atom_site_label
  _atom_site_symmetry_multiplicity
  _atom_site_fract_x
  _atom_site_fract_y
  _atom_site_fract_z
  _atom_site_occupancy
  Ba  Ba1       1.0  0.8644055978899513  0.2897774988464489  0.4752341274389462  1.0000
  Ba  Ba2       1.0  0.2930950615721613  0.09131624635512949  0.8678124682909891  1.0000
  Ba  Ba3       1.0  0.24656839325479143  0.5932229302192876  0.8396916048627481  1.0000
  O   O1        1.0  0.6186296979327418  0.9724542362556168  0.6146265521198927  1.0000
  Ba  Ba4       1.0  0.7579208333508184  0.8546654892614914  0.3057882494921164  1.0000
  Ti  Ti1       1.0  0.3756868782277343  0.567923272655748  0.2816591770687387  1.0000
  O   O2        1.0  0.5493350116279848  0.788171763989414  0.07440210629078912  1.0000
  O   O3        1.0  0.01733474823491235  0.922549698208987  0.7717023013676136  1.0000
  O   O4        1.0  0.4487300352285666  0.49536324287301436  0.5302044269876969  1.0000
  O   O5        1.0  0.47136849427283556  0.3897555874049022  0.16762266388042568  1.0000
  O   O6        1.0  0.6616311236175428  0.20240367629388983  0.8897350163628845  1.0000
  Ti  Ti2       1.0  0.7341403156309133  0.3539337748238042  0.9824584027057113  1.0000
  O   O7        1.0  0.8352468921031744  0.5999336173882973  0.7571523019321205  1.0000
  Ti  Ti3       1.0  0.7596782639409954  0.8169283401519589  0.8140236903306926  1.0000
  O   O8        1.0  0.09392659541388683  0.62652733876302  0.25592025498164583  1.0000
  O   O9        1.0  0.9643788993678245  0.2463817629251253  0.10078963471382801  1.0000
