data_image974
_chemical_formula_structural       OTiBaO
_chemical_formula_sum              "O2 Ti1 Ba1"
_cell_length_a       3.3248060845655942
_cell_length_b       3.3268400868792996
_cell_length_c       6.317005634307861
_cell_angle_alpha    74.74756813575641
_cell_angle_beta     74.73162608609205
_cell_angle_gamma    59.95554361079219

_space_group_name_H-M_alt    "P 1"
_space_group_IT_number       1

loop_
  _space_group_symop_operation_xyz
  'x, y, z'

loop_
  _atom_site_type_symbol
  _atom_site_label
  _atom_site_symmetry_multiplicity
  _atom_site_fract_x
  _atom_site_fract_y
  _atom_site_fract_z
  _atom_site_occupancy
  O   O1        1.0  0.3478603447631042  0.23991534468903486  0.10151077834878822  1.0000
  Ti  Ti1       1.0  0.6262293317913236  0.518118334205191  0.2665096777610451  1.0000
  Ba  Ba1       1.0  0.12616086299892199  0.01859877563695249  0.7663405445006896  1.0000
  O   O2        1.0  0.9046219899932709  0.7966793165560538  0.43126091133085775  1.0000
