data_image757
_chemical_formula_structural       BaTiO2
_chemical_formula_sum              "Ba1 Ti1 O2"
_cell_length_a       3.2660670503197853
_cell_length_b       3.2665412438163948
_cell_length_c       6.496899604797363
_cell_angle_alpha    75.44441790324483
_cell_angle_beta     75.43245819633675
_cell_angle_gamma    60.04766286820547

_space_group_name_H-M_alt    "P 1"
_space_group_IT_number       1

loop_
  _space_group_symop_operation_xyz
  'x, y, z'

loop_
  _atom_site_type_symbol
  _atom_site_label
  _atom_site_symmetry_multiplicity
  _atom_site_fract_x
  _atom_site_fract_y
  _atom_site_fract_z
  _atom_site_occupancy
  Ba  Ba1       1.0  0.298487750415319  0.7107906856040753  0.649171326955921  1.0000
  Ti  Ti1       1.0  0.12816744226150478  0.5404644499842404  0.15944396642051245  1.0000
  O   O1        1.0  0.7408555516553667  0.15317626509020327  0.3213902136811994  1.0000
  O   O2        1.0  0.5173172684969235  0.9295457786322976  0.9923231460769387  1.0000
