data_image230
_chemical_formula_structural       BaTiOBaO2TiO
_chemical_formula_sum              "Ba2 Ti2 O4"
_cell_length_a       4.142003387143285
_cell_length_b       5.844567764807218
_cell_length_c       6.290912628173828
_cell_angle_alpha    117.9591569372093
_cell_angle_beta     109.14460624683835
_cell_angle_gamma    89.96308458085001

_space_group_name_H-M_alt    "P 1"
_space_group_IT_number       1

loop_
  _space_group_symop_operation_xyz
  'x, y, z'

loop_
  _atom_site_type_symbol
  _atom_site_label
  _atom_site_symmetry_multiplicity
  _atom_site_fract_x
  _atom_site_fract_y
  _atom_site_fract_z
  _atom_site_occupancy
  Ba  Ba1       1.0  0.8670727866659395  0.35304745438342183  0.4952729426292072  1.0000
  Ti  Ti1       1.0  0.6200789596617989  0.6074255888374189  0.002322410242196371  1.0000
  O   O1        1.0  0.4732333567893124  0.20979098153950076  0.7078973062933075  1.0000
  Ba  Ba2       1.0  0.0797942282042859  0.06708324799480979  0.9212665999861782  1.0000
  O   O2        1.0  0.4734999470802114  0.7100306357857764  0.7083892622872487  1.0000
  O   O3        1.0  0.8193595346854263  0.8042523527824232  0.3994051190690246  1.0000
  Ti  Ti2       1.0  0.3268244906731287  0.8125260807373503  0.41430169451146304  1.0000
  O   O4        1.0  0.12751666086018734  0.6151828962407846  0.017172221942949498  1.0000
