data_image205
_chemical_formula_structural       TiBa2OBaO
_chemical_formula_sum              "Ti1 Ba3 O2"
_cell_length_a       4.057198665042202
_cell_length_b       4.063596082488238
_cell_length_c       11.20456600189209
_cell_angle_alpha    90.1769727133567
_cell_angle_beta     90.13407229489219
_cell_angle_gamma    90.02576597717783

_space_group_name_H-M_alt    "P 1"
_space_group_IT_number       1

loop_
  _space_group_symop_operation_xyz
  'x, y, z'

loop_
  _atom_site_type_symbol
  _atom_site_label
  _atom_site_symmetry_multiplicity
  _atom_site_fract_x
  _atom_site_fract_y
  _atom_site_fract_z
  _atom_site_occupancy
  Ti  Ti1       1.0  0.2896741705954937  0.05344130171308502  0.6221204566045473  1.0000
  Ba  Ba1       1.0  0.7889221545127052  0.5524169493494615  0.4367126884725935  1.0000
  Ba  Ba2       1.0  0.28968238301794047  0.05348475503593166  0.12216179622172457  1.0000
  O   O1        1.0  0.7896988692576419  0.053443566956983345  0.6221257516165778  1.0000
  Ba  Ba3       1.0  0.7904260496105256  0.5544336327576971  0.8075724111859647  1.0000
  O   O2        1.0  0.2896748223914912  0.5534165820182535  0.6221308261122955  1.0000
