data_image408
_chemical_formula_structural       BaTiOTiO4BaO
_chemical_formula_sum              "Ba2 Ti2 O6"
_cell_length_a       5.7070931201814785
_cell_length_b       5.708374147150751
_cell_length_c       5.707679748535156
_cell_angle_alpha    60.059588832720564
_cell_angle_beta     60.057545695067816
_cell_angle_gamma    60.049036785223606

_space_group_name_H-M_alt    "P 1"
_space_group_IT_number       1

loop_
  _space_group_symop_operation_xyz
  'x, y, z'

loop_
  _atom_site_type_symbol
  _atom_site_label
  _atom_site_symmetry_multiplicity
  _atom_site_fract_x
  _atom_site_fract_y
  _atom_site_fract_z
  _atom_site_occupancy
  Ba  Ba1       1.0  0.8127729179961845  0.019639909784035015  0.8197100140344669  1.0000
  Ti  Ti1       1.0  0.062448980992634816  0.2696753889407914  0.0695088130523651  1.0000
  O   O1        1.0  0.31271624734843567  0.5197258307339411  0.819551208124447  1.0000
  Ti  Ti2       1.0  0.562490769950986  0.7695589651530296  0.5694402101572131  1.0000
  O   O2        1.0  0.8126045607392759  0.5196711032409307  0.31977606164338584  1.0000
  O   O3        1.0  0.3125281040054794  0.01976817776902268  0.3195902479720126  1.0000
  O   O4        1.0  0.8125509022988503  0.019712483015593155  0.3196429276450476  1.0000
  O   O5        1.0  0.8125885546776398  0.5199587355736499  0.8194875951729257  1.0000
  Ba  Ba2       1.0  0.31258135423493866  0.5196249472497758  0.3195995250512495  1.0000
  O   O6        1.0  0.31269640552156003  0.019643625981588708  0.8197158995610582  1.0000
