data_image621
_chemical_formula_structural       Ba2OTiOTiO4
_chemical_formula_sum              "Ba2 O6 Ti2"
_cell_length_a       4.233682127660196
_cell_length_b       5.654633792336201
_cell_length_c       5.651103496551514
_cell_angle_alpha    90.03769831973648
_cell_angle_beta     90.03788956333476
_cell_angle_gamma    89.98739397467082

_space_group_name_H-M_alt    "P 1"
_space_group_IT_number       1

loop_
  _space_group_symop_operation_xyz
  'x, y, z'

loop_
  _atom_site_type_symbol
  _atom_site_label
  _atom_site_symmetry_multiplicity
  _atom_site_fract_x
  _atom_site_fract_y
  _atom_site_fract_z
  _atom_site_occupancy
  Ba  Ba1       1.0  0.6423229372808448  0.9618172385538537  0.7762635800029275  1.0000
  Ba  Ba2       1.0  0.6423425433409585  0.461869317748983  0.2761570031338404  1.0000
  O   O1        1.0  0.6934882311180842  0.9618468989240987  0.27593277202244165  1.0000
  Ti  Ti1       1.0  0.12326448428761617  0.9616985930921149  0.2770185304375603  1.0000
  O   O2        1.0  0.17143389314521124  0.7118400455537434  0.025536151226601248  1.0000
  Ti  Ti2       1.0  0.12321395427045725  0.46169181092588374  0.7769479358762863  1.0000
  O   O3        1.0  0.17119507156498606  0.2118584902098576  0.5255786927312402  1.0000
  O   O4        1.0  0.6934790067788152  0.4619908214283848  0.7758672701276151  1.0000
  O   O5        1.0  0.17106883198908115  0.2121445962551691  0.025551830469025587  1.0000
  O   O6        1.0  0.17112594658072802  0.7121210439116346  0.5254356495461987  1.0000
