data_image233
_chemical_formula_structural       BaOBaOTiO
_chemical_formula_sum              "Ba2 O3 Ti1"
_cell_length_a       3.966628863224539
_cell_length_b       4.036918646909832
_cell_length_c       7.376589775085449
_cell_angle_alpha    105.84432771743498
_cell_angle_beta     105.59867862264994
_cell_angle_gamma    90.03945994729641

_space_group_name_H-M_alt    "P 1"
_space_group_IT_number       1

loop_
  _space_group_symop_operation_xyz
  'x, y, z'

loop_
  _atom_site_type_symbol
  _atom_site_label
  _atom_site_symmetry_multiplicity
  _atom_site_fract_x
  _atom_site_fract_y
  _atom_site_fract_z
  _atom_site_occupancy
  Ba  Ba1       1.0  0.5843692675734666  0.09305194030360954  0.36980322764093276  1.0000
  O   O1        1.0  0.07765491466704981  0.5862214812121568  0.3564108069650305  1.0000
  Ba  Ba2       1.0  0.2837244308317906  0.7924154480731227  0.7685678761547414  1.0000
  O   O2        1.0  0.7903708079426651  0.29909219983859336  0.7819740768827718  1.0000
  Ti  Ti1       1.0  0.9340795948346583  0.4427120882190721  0.06921903000857561  1.0000
  O   O3        1.0  0.9341277616634389  0.9426783634415438  0.06919948841414748  1.0000
