data_image180
_chemical_formula_structural       Ba3TiOBaO5
_chemical_formula_sum              "Ba4 Ti1 O6"
_cell_length_a       4.1260630153835365
_cell_length_b       4.1310380040923205
_cell_length_c       13.331318855285646
_cell_angle_alpha    98.85890806007323
_cell_angle_beta     98.83631312045085
_cell_angle_gamma    90.09738739982075

_space_group_name_H-M_alt    "P 1"
_space_group_IT_number       1

loop_
  _space_group_symop_operation_xyz
  'x, y, z'

loop_
  _atom_site_type_symbol
  _atom_site_label
  _atom_site_symmetry_multiplicity
  _atom_site_fract_x
  _atom_site_fract_y
  _atom_site_fract_z
  _atom_site_occupancy
  Ba  Ba1       1.0  0.06265877648330818  0.3423528280771735  0.7075289750451025  1.0000
  Ba  Ba2       1.0  0.2305905102067799  0.5107040669601768  0.03485999135075005  1.0000
  Ba  Ba3       1.0  0.48200125454504167  0.7307637050672251  0.4940356004972631  1.0000
  Ti  Ti1       1.0  0.6442066246129655  0.9234593794996765  0.8364396352229748  1.0000
  O   O1        1.0  0.7827591288763103  0.5631665298535943  0.14069649955259497  1.0000
  Ba  Ba4       1.0  0.8336415125418476  0.11283367864382776  0.240982346124228  1.0000
  O   O2        1.0  0.2838203963580685  0.06274187705735382  0.14039336361635998  1.0000
  O   O3        1.0  0.8863309752806336  0.239100149745213  0.5081094251110846  1.0000
  O   O4        1.0  0.5468920531048802  0.8259690136304122  0.6948721186500129  1.0000
  O   O5        1.0  0.10021014782116382  0.8979646402247704  0.850318373298362  1.0000
  O   O6        1.0  0.6210581298494221  0.3782543195808007  0.8504315633379871  1.0000
