data_image634
_chemical_formula_structural       BaTiBaOTiO5
_chemical_formula_sum              "Ba2 Ti2 O6"
_cell_length_a       4.251090110790844
_cell_length_b       5.65752126462046
_cell_length_c       5.654834270477295
_cell_angle_alpha    89.99559020247271
_cell_angle_beta     89.99028997566748
_cell_angle_gamma    90.01421612790263

_space_group_name_H-M_alt    "P 1"
_space_group_IT_number       1

loop_
  _space_group_symop_operation_xyz
  'x, y, z'

loop_
  _atom_site_type_symbol
  _atom_site_label
  _atom_site_symmetry_multiplicity
  _atom_site_fract_x
  _atom_site_fract_y
  _atom_site_fract_z
  _atom_site_occupancy
  Ba  Ba1       1.0  0.7109464199298078  0.2530447498575769  0.7163553931935839  1.0000
  Ti  Ti1       1.0  0.22973439881214344  0.25303511769891307  0.2160063922607667  1.0000
  Ba  Ba2       1.0  0.710929797691085  0.7530580277788965  0.21634756576314426  1.0000
  O   O1        1.0  0.18064551672303683  0.5031381799481748  0.46667921486793984  1.0000
  Ti  Ti2       1.0  0.22974330199395251  0.7530092428536486  0.7160412651242122  1.0000
  O   O2        1.0  0.6570242234665371  0.2530888864479788  0.21640991396138673  1.0000
  O   O3        1.0  0.18057408150273646  0.0030491090136654147  0.9667403705200347  1.0000
  O   O4        1.0  0.18053090828134438  0.5029117000440172  0.9666466146315367  1.0000
  O   O5        1.0  0.18067145428310946  0.0030402424439648127  0.4667288984464146  1.0000
  O   O6        1.0  0.6570504658903961  0.7529845054114338  0.7165926291473625  1.0000
