data_image177
_chemical_formula_structural       O2Ba2TiO2BaTiOBaO
_chemical_formula_sum              "O6 Ba4 Ti2"
_cell_length_a       4.047294683698908
_cell_length_b       4.0481147954877565
_cell_length_c       14.683116912841797
_cell_angle_alpha    90.05589394356046
_cell_angle_beta     90.01042537324562
_cell_angle_gamma    90.00448993873043

_space_group_name_H-M_alt    "P 1"
_space_group_IT_number       1

loop_
  _space_group_symop_operation_xyz
  'x, y, z'

loop_
  _atom_site_type_symbol
  _atom_site_label
  _atom_site_symmetry_multiplicity
  _atom_site_fract_x
  _atom_site_fract_y
  _atom_site_fract_z
  _atom_site_occupancy
  O   O1        1.0  0.5227841313702812  0.6661645022909184  0.7065411323778032  1.0000
  O   O2        1.0  0.022882484042397445  0.6665361147884489  0.8513660716087506  1.0000
  Ba  Ba1       1.0  0.02279195496817886  0.16624814192839857  0.7136534304196974  1.0000
  Ba  Ba2       1.0  0.022959761716437082  0.16676250129773898  0.9841041097318556  1.0000
  Ti  Ti1       1.0  0.5228731181028708  0.6665219586652577  0.8396241793220991  1.0000
  O   O3        1.0  0.022700443887851585  0.16632088200448752  0.5224964155872116  1.0000
  O   O4        1.0  0.022688093545354178  0.6659460647420757  0.37769324079489025  1.0000
  Ba  Ba3       1.0  0.5227162177972441  0.6662478331170143  0.5153807902401601  1.0000
  Ti  Ti2       1.0  0.022687411213601096  0.16601771644158259  0.3894121424662665  1.0000
  O   O5        1.0  0.5226641127177455  0.16600505478449232  0.37766312569192856  1.0000
  Ba  Ba4       1.0  0.5227361721714933  0.665861815680426  0.24492289136882764  1.0000
  O   O6        1.0  0.5228855723759687  0.16658116431301934  0.8513406061391472  1.0000
