data_image495
_chemical_formula_structural       Ba2TiOBaO3
_chemical_formula_sum              "Ba3 Ti1 O4"
_cell_length_a       3.9572756358675014
_cell_length_b       3.9587759390778614
_cell_length_c       10.974852561950684
_cell_angle_alpha    90.02635337356074
_cell_angle_beta     89.99663522122206
_cell_angle_gamma    90.00760450538579

_space_group_name_H-M_alt    "P 1"
_space_group_IT_number       1

loop_
  _space_group_symop_operation_xyz
  'x, y, z'

loop_
  _atom_site_type_symbol
  _atom_site_label
  _atom_site_symmetry_multiplicity
  _atom_site_fract_x
  _atom_site_fract_y
  _atom_site_fract_z
  _atom_site_occupancy
  Ba  Ba1       1.0  0.2755456961535936  0.39837848000027587  0.483957590392822  1.0000
  Ba  Ba2       1.0  0.7757286435283445  0.8982957358200839  0.8465640834943094  1.0000
  Ti  Ti1       1.0  0.775583517521129  0.8982794705887117  0.28647106937680494  1.0000
  O   O1        1.0  0.7756226153620842  0.8981781939639835  0.10788484593060607  1.0000
  Ba  Ba3       1.0  0.27560934336118714  0.3981898194344162  0.11165001592411496  1.0000
  O   O2        1.0  0.2755817734951596  0.8982825319082035  0.3066139945358332  1.0000
  O   O3        1.0  0.27531486822341233  0.3982777319750665  0.8721447112035163  1.0000
  O   O4        1.0  0.7755806718248761  0.39830819501280074  0.30656707482573364  1.0000
