data_image661
_chemical_formula_structural       OTiBaO
_chemical_formula_sum              "O2 Ti1 Ba1"
_cell_length_a       3.2631057860772037
_cell_length_b       3.2630275608572745
_cell_length_c       7.123158931732177
_cell_angle_alpha    76.6439368946475
_cell_angle_beta     76.62462800164606
_cell_angle_gamma    59.832136024100976

_space_group_name_H-M_alt    "P 1"
_space_group_IT_number       1

loop_
  _space_group_symop_operation_xyz
  'x, y, z'

loop_
  _atom_site_type_symbol
  _atom_site_label
  _atom_site_symmetry_multiplicity
  _atom_site_fract_x
  _atom_site_fract_y
  _atom_site_fract_z
  _atom_site_occupancy
  O   O1        1.0  0.23559728173907737  0.8174012257778697  0.8639462080717701  1.0000
  Ti  Ti1       1.0  0.8587739521202805  0.44077848187519564  0.9933243078451051  1.0000
  Ba  Ba1       1.0  0.3589970109165618  0.940547769592665  0.4933158611319898  1.0000
  O   O2        1.0  0.4819281405915752  0.06412987290762193  0.12270540772927858  1.0000
