data_image147
_chemical_formula_structural       OTiOTi3BaO4BaO4
_chemical_formula_sum              "O10 Ti4 Ba2"
_cell_length_a       3.784074813947067
_cell_length_b       4.913772262483302
_cell_length_c       12.413689613342287
_cell_angle_alpha    98.50306886154469
_cell_angle_beta     98.78987539605036
_cell_angle_gamma    89.99617082289235

_space_group_name_H-M_alt    "P 1"
_space_group_IT_number       1

loop_
  _space_group_symop_operation_xyz
  'x, y, z'

loop_
  _atom_site_type_symbol
  _atom_site_label
  _atom_site_symmetry_multiplicity
  _atom_site_fract_x
  _atom_site_fract_y
  _atom_site_fract_z
  _atom_site_occupancy
  O   O1        1.0  0.23233108673135855  0.35292790150831443  0.8943420173610513  1.0000
  Ti  Ti1       1.0  0.6357982175446538  0.8723023239159233  0.7005153965806625  1.0000
  O   O2        1.0  0.7125808653657428  0.7896448724774127  0.8530510321679717  1.0000
  Ti  Ti2       1.0  0.8838267969533417  0.5109055012666454  0.19631021364997808  1.0000
  Ti  Ti3       1.0  0.7260081725234256  0.4314064048219255  0.8781918872172849  1.0000
  Ti  Ti4       1.0  0.04248510615607582  0.6169055461471085  0.5136367683852054  1.0000
  Ba  Ba1       1.0  0.3003859358957986  0.9458338982968151  0.028906405245370338  1.0000
  O   O3        1.0  0.12446990438350597  0.777146734971244  0.6775683116014605  1.0000
  O   O4        1.0  0.3860101902846286  0.6103266563560549  0.200876861515477  1.0000
  O   O5        1.0  0.8826577193971241  0.14609269388169904  0.19385845706127483  1.0000
  O   O6        1.0  0.8053443721782725  0.5297850186430053  0.04010151647095866  1.0000
  Ba  Ba2       1.0  0.46632570525059097  0.06198899971088557  0.3613644603024485  1.0000
  O   O7        1.0  0.03692502127229859  0.26273845115726363  0.5023525267659413  1.0000
  O   O8        1.0  0.9665834032483737  0.6558139751631055  0.36189921592534213  1.0000
  O   O9        1.0  0.6500050719536202  0.23201988848778124  0.7298092617655433  1.0000
  O   O10       1.0  0.5542542758153859  0.737718153547014  0.5372282000076948  1.0000
