data_image934
_chemical_formula_structural       TiBaO2
_chemical_formula_sum              "Ti1 Ba1 O2"
_cell_length_a       4.05766885066773
_cell_length_b       4.033647624290837
_cell_length_c       4.028569221496583
_cell_angle_alpha    89.96970378486095
_cell_angle_beta     90.06997096410431
_cell_angle_gamma    89.99850669308172

_space_group_name_H-M_alt    "P 1"
_space_group_IT_number       1

loop_
  _space_group_symop_operation_xyz
  'x, y, z'

loop_
  _atom_site_type_symbol
  _atom_site_label
  _atom_site_symmetry_multiplicity
  _atom_site_fract_x
  _atom_site_fract_y
  _atom_site_fract_z
  _atom_site_occupancy
  Ti  Ti1       1.0  0.9038739090511343  0.603541059808358  0.3433890444685031  1.0000
  Ba  Ba1       1.0  0.4038981364462185  0.10315723706411695  0.8431321340489847  1.0000
  O   O1        1.0  0.9039296608557832  0.603155260434916  0.8430818479725951  1.0000
  O   O2        1.0  0.9040434500266872  0.10291961920699598  0.3432101113368946  1.0000
