data_image93
_chemical_formula_structural       OBaTiO
_chemical_formula_sum              "O2 Ba1 Ti1"
_cell_length_a       3.3108572591754486
_cell_length_b       3.310882915978705
_cell_length_c       6.305821418762206
_cell_angle_alpha    74.808739541219
_cell_angle_beta     74.8277534288012
_cell_angle_gamma    60.073295598228576

_space_group_name_H-M_alt    "P 1"
_space_group_IT_number       1

loop_
  _space_group_symop_operation_xyz
  'x, y, z'

loop_
  _atom_site_type_symbol
  _atom_site_label
  _atom_site_symmetry_multiplicity
  _atom_site_fract_x
  _atom_site_fract_y
  _atom_site_fract_z
  _atom_site_occupancy
  O   O1        1.0  0.5407160938442319  0.20063267245528366  0.23095346742331158  1.0000
  Ba  Ba1       1.0  0.3186950131970579  0.9788030398951134  0.8968226218726405  1.0000
  Ti  Ti1       1.0  0.8188998588559244  0.4787357806543545  0.39680415802979674  1.0000
  O   O2        1.0  0.09664570370688166  0.7569109274924021  0.5626980599868906  1.0000
