data_image48
_chemical_formula_structural       OTiO2Ti2BaO2Ti2BaOTiO6
_chemical_formula_sum              "O12 Ti6 Ba2"
_cell_length_a       3.807832007319532
_cell_length_b       7.161722766034036
_cell_length_c       10.541173934936523
_cell_angle_alpha    102.70668107162277
_cell_angle_beta     89.97118593571504
_cell_angle_gamma    89.99718163677566

_space_group_name_H-M_alt    "P 1"
_space_group_IT_number       1

loop_
  _space_group_symop_operation_xyz
  'x, y, z'

loop_
  _atom_site_type_symbol
  _atom_site_label
  _atom_site_symmetry_multiplicity
  _atom_site_fract_x
  _atom_site_fract_y
  _atom_site_fract_z
  _atom_site_occupancy
  O   O1        1.0  0.9625880523593573  0.6152546713399721  0.3249958704166733  1.0000
  Ti  Ti1       1.0  0.9627122502688031  0.6795634612488786  0.8537828276413291  1.0000
  O   O2        1.0  0.46261227472987404  0.7933898954972776  0.504788366842879  1.0000
  O   O3        1.0  0.9626555354591025  0.12540099876370844  0.5938033491483742  1.0000
  Ti  Ti2       1.0  0.4628133534283784  0.5778931148521868  0.6045684924101704  1.0000
  Ti  Ti3       1.0  0.46256965500297376  0.5728022990889575  0.33169824320827085  1.0000
  Ba  Ba1       1.0  0.46285001184156765  0.9947187513313721  0.1495068111973277  1.0000
  O   O4        1.0  0.9627939246913298  0.5349987157995205  0.6114114551814047  1.0000
  O   O5        1.0  0.962889156473772  0.7555378230901798  0.03003856340707524  1.0000
  Ti  Ti4       1.0  0.9626861541043193  0.27761951349312025  0.4750314445637479  1.0000
  Ti  Ti5       1.0  0.9626730557862214  0.47115582264131833  0.08232040840465762  1.0000
  Ba  Ba2       1.0  0.4625259639704639  0.15595359950884477  0.7866010806402334  1.0000
  O   O6        1.0  0.462745120108419  0.35724589260157563  0.4315367984474821  1.0000
  Ti  Ti6       1.0  0.962670694563917  0.8729393891535624  0.4611236566319862  1.0000
  O   O7        1.0  0.46272676353775316  0.5434158517622946  0.1403912566987451  1.0000
  O   O8        1.0  0.9625080388427062  0.9076225112330499  0.8134350260591265  1.0000
  O   O9        1.0  0.9624946550190536  0.3952447979664909  0.9060685511227463  1.0000
  O   O10       1.0  0.9626978486125025  0.025177182966503838  0.34233324270016946  1.0000
  O   O11       1.0  0.9628780077791176  0.24297042291399878  0.12245341556919848  1.0000
  O   O12       1.0  0.4626589990641514  0.607427170149996  0.7958711075968851  1.0000
