data_image683
_chemical_formula_structural       TiOBa3OBaO2TiOBaTiO5
_chemical_formula_sum              "Ti3 O10 Ba5"
_cell_length_a       3.833012394517829
_cell_length_b       3.8829195631779734
_cell_length_c       20.9156436920166
_cell_angle_alpha    89.99526918342033
_cell_angle_beta     89.99055635329576
_cell_angle_gamma    90.03185850867062

_space_group_name_H-M_alt    "P 1"
_space_group_IT_number       1

loop_
  _space_group_symop_operation_xyz
  'x, y, z'

loop_
  _atom_site_type_symbol
  _atom_site_label
  _atom_site_symmetry_multiplicity
  _atom_site_fract_x
  _atom_site_fract_y
  _atom_site_fract_z
  _atom_site_occupancy
  Ti  Ti1       1.0  0.7544230184043019  0.3975143998081682  0.060578336464675524  1.0000
  O   O1        1.0  0.27064015688823206  0.8875980072353563  0.7973388085670173  1.0000
  Ba  Ba1       1.0  0.7698652150524381  0.38816527610646734  0.8020971494290893  1.0000
  Ba  Ba2       1.0  0.26190309342778073  0.8904070121652969  0.9509979627983627  1.0000
  Ba  Ba3       1.0  0.7696295426559141  0.38822525594580565  0.5881819768743661  1.0000
  O   O2        1.0  0.7535757718384485  0.3878810770897028  0.3954940695481573  1.0000
  Ba  Ba4       1.0  0.7369426856836957  0.4255212347983958  0.26884849290141194  1.0000
  O   O3        1.0  0.26938884158634524  0.8893071606712805  0.5564422591920954  1.0000
  O   O4        1.0  0.23647444344823254  0.879477212336527  0.22764647485948186  1.0000
  Ti  Ti2       1.0  0.270866242540677  0.8877586153218998  0.7058913441171218  1.0000
  O   O5        1.0  0.7712027394684056  0.9044835640259656  0.04364694557840849  1.0000
  Ba  Ba5       1.0  0.25688507786546183  0.8939786421656983  0.4303060062874205  1.0000
  Ti  Ti3       1.0  0.2329644091878056  0.9857940433474285  0.13934257545830728  1.0000
  O   O6        1.0  0.7569748301937889  0.397254239288534  0.949903281096946  1.0000
  O   O7        1.0  0.27206827285491353  0.3871576349635455  0.6969429116788077  1.0000
  O   O8        1.0  0.253672526564522  0.47763846444842056  0.08872452788056646  1.0000
  O   O9        1.0  0.7714517788970904  0.886729622832268  0.6944121590805938  1.0000
  O   O10       1.0  0.7410228506075642  0.17861282681463408  0.15149589802553767  1.0000
