data_image78
_chemical_formula_structural       BaO2Ti
_chemical_formula_sum              "Ba1 O2 Ti1"
_cell_length_a       4.089797602368839
_cell_length_b       4.091830307408035
_cell_length_c       6.739809989929198
_cell_angle_alpha    72.29215533330141
_cell_angle_beta     72.31753788286747
_cell_angle_gamma    59.974183885116176

_space_group_name_H-M_alt    "P 1"
_space_group_IT_number       1

loop_
  _space_group_symop_operation_xyz
  'x, y, z'

loop_
  _atom_site_type_symbol
  _atom_site_label
  _atom_site_symmetry_multiplicity
  _atom_site_fract_x
  _atom_site_fract_y
  _atom_site_fract_z
  _atom_site_occupancy
  Ba  Ba1       1.0  0.5483445145126319  0.07549798686183036  0.3779591611549947  1.0000
  O   O1        1.0  0.9509814028450598  0.47841908582427395  0.17011928787608022  1.0000
  O   O2        1.0  0.1457256161393377  0.6725683952926533  0.5857335575793183  1.0000
  Ti  Ti1       1.0  0.04814168987967793  0.5752144758255282  0.8779281997352005  1.0000
