data_image470
_chemical_formula_structural       OBaTiBaOTiO4
_chemical_formula_sum              "O6 Ba2 Ti2"
_cell_length_a       5.622895908724735
_cell_length_b       4.422195716616707
_cell_length_c       5.621296405792236
_cell_angle_alpha    89.9175962706959
_cell_angle_beta     89.91362110684888
_cell_angle_gamma    89.88404639122854

_space_group_name_H-M_alt    "P 1"
_space_group_IT_number       1

loop_
  _space_group_symop_operation_xyz
  'x, y, z'

loop_
  _atom_site_type_symbol
  _atom_site_label
  _atom_site_symmetry_multiplicity
  _atom_site_fract_x
  _atom_site_fract_y
  _atom_site_fract_z
  _atom_site_occupancy
  O   O1        1.0  0.4484898047595115  0.4769848208704436  0.08008006646728079  1.0000
  Ba  Ba1       1.0  0.6985326747997548  0.024247004814749493  0.8306455895963732  1.0000
  Ti  Ti1       1.0  0.6984947636957224  0.5382350782972462  0.33079484257018654  1.0000
  Ba  Ba2       1.0  0.19860028033702903  0.024200886880889505  0.3302322512639835  1.0000
  O   O2        1.0  0.9484925668356596  0.476538779363711  0.0801761475236384  1.0000
  Ti  Ti2       1.0  0.19846038215064096  0.5383235444148071  0.8306346247613977  1.0000
  O   O3        1.0  0.44822054138879724  0.47687655474681334  0.5799458259756332  1.0000
  O   O4        1.0  0.9482275143715507  0.47733450892172824  0.5803383001614026  1.0000
  O   O5        1.0  0.19825799059956564  0.9453742265744809  0.8302867242080567  1.0000
  O   O6        1.0  0.6983445647346781  0.9453001273256929  0.33026043425159896  1.0000
