data_image562
_chemical_formula_structural       BaTi2O5
_chemical_formula_sum              "Ba1 Ti2 O5"
_cell_length_a       5.327936358165453
_cell_length_b       5.521938228429825
_cell_length_c       5.41091775894165
_cell_angle_alpha    91.20472490868202
_cell_angle_beta     119.91808151918362
_cell_angle_gamma    89.75715518696715

_space_group_name_H-M_alt    "P 1"
_space_group_IT_number       1

loop_
  _space_group_symop_operation_xyz
  'x, y, z'

loop_
  _atom_site_type_symbol
  _atom_site_label
  _atom_site_symmetry_multiplicity
  _atom_site_fract_x
  _atom_site_fract_y
  _atom_site_fract_z
  _atom_site_occupancy
  Ba  Ba1       1.0  0.3886373929095804  0.2028424999756338  0.380649704480609  1.0000
  Ti  Ti1       1.0  0.7807421741136089  0.7512809634460081  0.9768907125283488  1.0000
  Ti  Ti2       1.0  0.9982775748095666  0.749901518629696  0.5840854495452751  1.0000
  O   O1        1.0  0.3902617353734847  0.8237026273776042  0.7416564403486517  1.0000
  O   O2        1.0  0.803335917481413  0.5364486905883334  0.7022379870828427  1.0000
  O   O3        1.0  0.7935286223909817  0.962952447188541  0.3050923750187034  1.0000
  O   O4        1.0  0.9748647175712679  0.5374622489338347  0.28618938662049204  1.0000
  O   O5        1.0  0.988517478976017  0.9636439629986321  0.9014577510391139  1.0000
