data_image356
_chemical_formula_structural       BaTiOBaO3TiO2
_chemical_formula_sum              "Ba2 Ti2 O6"
_cell_length_a       5.697003438051258
_cell_length_b       5.70012550115426
_cell_length_c       5.6988868713378915
_cell_angle_alpha    60.1136621157763
_cell_angle_beta     60.06620714181772
_cell_angle_gamma    60.07399992720254

_space_group_name_H-M_alt    "P 1"
_space_group_IT_number       1

loop_
  _space_group_symop_operation_xyz
  'x, y, z'

loop_
  _atom_site_type_symbol
  _atom_site_label
  _atom_site_symmetry_multiplicity
  _atom_site_fract_x
  _atom_site_fract_y
  _atom_site_fract_z
  _atom_site_occupancy
  Ba  Ba1       1.0  0.0025491355918348863  0.6818546056747435  0.19917078316211706  1.0000
  Ti  Ti1       1.0  0.25274530053138733  0.9319226145744324  0.44918957352638245  1.0000
  O   O1        1.0  0.0026362380012869865  0.6818195581436157  0.69912987947464  1.0000
  Ba  Ba2       1.0  0.5027608871459961  0.18199679255485532  0.6992202401161194  1.0000
  O   O2        1.0  0.5026505589485166  0.6819402575492859  0.6992340683937073  1.0000
  O   O3        1.0  0.5025246143341064  0.18192268908023834  0.19934216141700745  1.0000
  O   O4        1.0  0.002734780311584505  0.1820423901081085  0.6991451978683472  1.0000
  Ti  Ti2       1.0  0.75265771150589  0.4319481253623962  0.9491779804229735  1.0000
  O   O5        1.0  0.5026906132698058  0.681976318359375  0.19908809661865234  1.0000
  O   O6        1.0  0.0026593310758471936  0.1819974929094314  0.19910390675067902  1.0000
