data_image886
_chemical_formula_structural       OBa2TiO5
_chemical_formula_sum              "O6 Ba2 Ti1"
_cell_length_a       5.845016494910705
_cell_length_b       5.926120550829508
_cell_length_c       6.23221492767334
_cell_angle_alpha    95.63798861000869
_cell_angle_beta     115.18922513018758
_cell_angle_gamma    115.17014115164054

_space_group_name_H-M_alt    "P 1"
_space_group_IT_number       1

loop_
  _space_group_symop_operation_xyz
  'x, y, z'

loop_
  _atom_site_type_symbol
  _atom_site_label
  _atom_site_symmetry_multiplicity
  _atom_site_fract_x
  _atom_site_fract_y
  _atom_site_fract_z
  _atom_site_occupancy
  O   O1        1.0  0.6234098787048956  0.7783189059883712  0.6926169073656282  1.0000
  Ba  Ba1       1.0  0.09112576799132727  0.22382520935982358  0.04163545306871934  1.0000
  Ba  Ba2       1.0  0.10481398062646281  0.7244897603543754  0.5451020980503035  1.0000
  Ti  Ti1       1.0  0.6310695026667424  0.5065645377305822  0.7966158524919333  1.0000
  O   O2        1.0  0.39967085897363397  0.19308969866057052  0.4933974771745612  1.0000
  O   O3        1.0  0.6179889858946078  0.5780667732700256  0.10356185602141112  1.0000
  O   O4        1.0  0.006393452971430513  0.5964455911933585  0.897556396994975  1.0000
  O   O5        1.0  0.6144243698871255  0.31926688831412  0.07150723061786796  1.0000
  O   O6        1.0  0.1719182159702126  0.2204459521105019  0.5311568669097892  1.0000
