data_image650
_chemical_formula_structural       BaO
_chemical_formula_sum              "Ba1 O1"
_cell_length_a       3.956635673383829
_cell_length_b       3.956577834784557
_cell_length_c       3.9574668407440186
_cell_angle_alpha    60.042772424430936
_cell_angle_beta     60.01904396639737
_cell_angle_gamma    60.04174290919946

_space_group_name_H-M_alt    "P 1"
_space_group_IT_number       1

loop_
  _space_group_symop_operation_xyz
  'x, y, z'

loop_
  _atom_site_type_symbol
  _atom_site_label
  _atom_site_symmetry_multiplicity
  _atom_site_fract_x
  _atom_site_fract_y
  _atom_site_fract_z
  _atom_site_occupancy
  Ba  Ba1       1.0  0.9911670088768009  0.18792754411697388  0.5554323792457582  1.0000
  O   O1        1.0  0.49165949225425715  0.6875535249710083  0.055689916014671326  1.0000
