data_image287
_chemical_formula_structural       BaO2Ti
_chemical_formula_sum              "Ba1 O2 Ti1"
_cell_length_a       3.054473927107155
_cell_length_b       3.9258391492019222
_cell_length_c       6.444351196289062
_cell_angle_alpha    107.70944055921886
_cell_angle_beta     89.96634333329436
_cell_angle_gamma    90.06068190146647

_space_group_name_H-M_alt    "P 1"
_space_group_IT_number       1

loop_
  _space_group_symop_operation_xyz
  'x, y, z'

loop_
  _atom_site_type_symbol
  _atom_site_label
  _atom_site_symmetry_multiplicity
  _atom_site_fract_x
  _atom_site_fract_y
  _atom_site_fract_z
  _atom_site_occupancy
  Ba  Ba1       1.0  0.9825372896122067  0.3479541015562181  0.73745621364113  1.0000
  O   O1        1.0  0.48236950116816824  0.5267722652306797  0.09305240972978657  1.0000
  O   O2        1.0  0.4822493061025304  0.738079945901788  0.5184760196632806  1.0000
  Ti  Ti1       1.0  0.9822852331937564  0.6258045217010131  0.2926122381897344  1.0000
