data_image380
_chemical_formula_structural       TiBa2TiOBaO2BaO5
_chemical_formula_sum              "Ti2 Ba4 O8"
_cell_length_a       4.070366976657148
_cell_length_b       4.076172698794557
_cell_length_c       14.55421543121338
_cell_angle_alpha    90.06025842815448
_cell_angle_beta     90.04996533738962
_cell_angle_gamma    90.10462733097125

_space_group_name_H-M_alt    "P 1"
_space_group_IT_number       1

loop_
  _space_group_symop_operation_xyz
  'x, y, z'

loop_
  _atom_site_type_symbol
  _atom_site_label
  _atom_site_symmetry_multiplicity
  _atom_site_fract_x
  _atom_site_fract_y
  _atom_site_fract_z
  _atom_site_occupancy
  Ti  Ti1       1.0  0.5440337945090749  0.6378804468646209  0.9354990122185157  1.0000
  Ba  Ba1       1.0  0.5280433815970645  0.6526290848721907  0.5692781859454452  1.0000
  Ba  Ba2       1.0  0.034161922234312685  0.1470399409811967  0.3322150285694046  1.0000
  Ti  Ti2       1.0  0.542302583643485  0.6390808085357541  0.20778645201717594  1.0000
  O   O1        1.0  0.5199003782396133  0.6638115645227407  0.061506159584239335  1.0000
  Ba  Ba3       1.0  0.03135858457361122  0.15098330082720063  0.05936155936793451  1.0000
  O   O2        1.0  0.016603093287155524  0.661095567146744  0.20279845065177393  1.0000
  O   O3        1.0  0.5275490894002948  0.15300582399988255  0.6607579992551605  1.0000
  Ba  Ba4       1.0  0.02839092845424447  0.15333131929138188  0.7582256068875433  1.0000
  O   O4        1.0  0.5230896109812202  0.6620818901255073  0.33587624402537686  1.0000
  O   O5        1.0  0.9975102274309611  0.6717701579328496  0.9216205263608492  1.0000
  O   O6        1.0  0.511011358486161  0.1856596765056885  0.9218067732542634  1.0000
  O   O7        1.0  0.5228785937146335  0.1679597716003596  0.20291087051971052  1.0000
  O   O8        1.0  0.028208202824831493  0.6535595326809801  0.6610399254885344  1.0000
