data_image252
_chemical_formula_structural       Ba3OTiOBaO3TiO
_chemical_formula_sum              "Ba4 O6 Ti2"
_cell_length_a       4.028944749362789
_cell_length_b       4.030092262555764
_cell_length_c       14.712197303771974
_cell_angle_alpha    89.99385533432635
_cell_angle_beta     90.02046575250708
_cell_angle_gamma    90.00630676918054

_space_group_name_H-M_alt    "P 1"
_space_group_IT_number       1

loop_
  _space_group_symop_operation_xyz
  'x, y, z'

loop_
  _atom_site_type_symbol
  _atom_site_label
  _atom_site_symmetry_multiplicity
  _atom_site_fract_x
  _atom_site_fract_y
  _atom_site_fract_z
  _atom_site_occupancy
  Ba  Ba1       1.0  0.46451646390690476  0.521292323197365  0.4850930090549023  1.0000
  Ba  Ba2       1.0  0.4647391245054405  0.5212137260565101  0.756521313155639  1.0000
  Ba  Ba3       1.0  0.9642629544945515  0.021673556851001332  0.28685486540200517  1.0000
  O   O1        1.0  0.9645584777730304  0.021184361756241055  0.47845260815964863  1.0000
  Ti  Ti1       1.0  0.9646759200622614  0.02120269087934626  0.611545062340556  1.0000
  O   O2        1.0  0.4640814428389913  0.02177477218810078  0.14871148233378712  1.0000
  Ba  Ba4       1.0  0.964090249856144  0.021766911177251512  0.015397807771256395  1.0000
  O   O3        1.0  0.4642745508690765  0.5217237650490891  0.29350619896619395  1.0000
  O   O4        1.0  0.4647151776871257  0.0211892393296271  0.623271958872316  1.0000
  O   O5        1.0  0.9647065668390119  0.5211814082610089  0.6232527589717777  1.0000
  Ti  Ti2       1.0  0.4641237090471796  0.521745480182876  0.1604069994849793  1.0000
  O   O6        1.0  0.9640710312690646  0.5217643037252238  0.14866896906803176  1.0000
