data_image1057
_chemical_formula_structural       OBa6O2TiO4TiO3
_chemical_formula_sum              "O10 Ba6 Ti2"
_cell_length_a       3.8655827732098005
_cell_length_b       5.923158689778386
_cell_length_c       14.32393550872803
_cell_angle_alpha    90.024031110209
_cell_angle_beta     90.03648937533086
_cell_angle_gamma    90.13388786238635

_space_group_name_H-M_alt    "P 1"
_space_group_IT_number       1

loop_
  _space_group_symop_operation_xyz
  'x, y, z'

loop_
  _atom_site_type_symbol
  _atom_site_label
  _atom_site_symmetry_multiplicity
  _atom_site_fract_x
  _atom_site_fract_y
  _atom_site_fract_z
  _atom_site_occupancy
  O   O1        1.0  0.6797001265252701  0.8526134510268072  0.42108325678499936  1.0000
  Ba  Ba1       1.0  0.6359598012019849  0.5915163869558475  0.17117863103872594  1.0000
  Ba  Ba2       1.0  0.18888968128241013  0.08609627032819892  0.8044817000355075  1.0000
  Ba  Ba3       1.0  0.6346390748818111  0.5869748714869003  0.6712845845916011  1.0000
  Ba  Ba4       1.0  0.1912877145587348  0.087229771265861  0.3046037645598829  1.0000
  Ba  Ba5       1.0  0.19182345110129365  0.08769810562195869  0.0378585547066493  1.0000
  Ba  Ba6       1.0  0.18812086189712804  0.08601639767793119  0.5378743917316683  1.0000
  O   O2        1.0  0.12194215266398123  0.5846104046571017  0.3013316560672108  1.0000
  O   O3        1.0  0.6743599839352604  0.07784567392095224  0.17120106666553409  1.0000
  Ti  Ti1       1.0  0.9135130793289676  0.5862954926868175  0.9212426992034697  1.0000
  O   O4        1.0  0.12118556620404573  0.5859529032627451  0.5411968805512751  1.0000
  O   O5        1.0  0.12167988417781461  0.5873528479985858  0.8012251219926352  1.0000
  O   O6        1.0  0.6783912932035003  0.3199204101885838  0.9206445636422959  1.0000
  O   O7        1.0  0.6809983400076473  0.8530704100150118  0.9217710508148751  1.0000
  Ti  Ti2       1.0  0.9125665631045786  0.5858594989094003  0.42118621082104934  1.0000
  O   O8        1.0  0.6774831625807135  0.3195137028083594  0.42139456891890914  1.0000
  O   O9        1.0  0.12234843935099694  0.5842693479704938  0.041212268094595474  1.0000
  O   O10       1.0  0.6728865188641328  0.08423470427767747  0.6712401485250161  1.0000
