data_image200
_chemical_formula_structural       TiBaO2
_chemical_formula_sum              "Ti1 Ba1 O2"
_cell_length_a       3.310754758655848
_cell_length_b       3.3144127369616005
_cell_length_c       6.326001644134522
_cell_angle_alpha    74.8353149942839
_cell_angle_beta     74.83618897384943
_cell_angle_gamma    60.01689293825313

_space_group_name_H-M_alt    "P 1"
_space_group_IT_number       1

loop_
  _space_group_symop_operation_xyz
  'x, y, z'

loop_
  _atom_site_type_symbol
  _atom_site_label
  _atom_site_symmetry_multiplicity
  _atom_site_fract_x
  _atom_site_fract_y
  _atom_site_fract_z
  _atom_site_occupancy
  Ti  Ti1       1.0  0.7481166702645948  0.8804721261309975  0.19995669431624513  1.0000
  Ba  Ba1       1.0  0.2484508258135575  0.3807442164721798  0.6996427437004116  1.0000
  O   O1        1.0  0.026560073548798788  0.15886189643284787  0.36484678407922594  1.0000
  O   O2        1.0  0.46996554652751965  0.6023199691252487  0.03458876094395976  1.0000
