data_image182
_chemical_formula_structural       BaTiO5BaOTiO2
_chemical_formula_sum              "Ba2 Ti2 O8"
_cell_length_a       4.141150732719546
_cell_length_b       5.870531507429093
_cell_length_c       6.667757511138915
_cell_angle_alpha    89.77504339921435
_cell_angle_beta     96.70730250555475
_cell_angle_gamma    89.98482582577263

_space_group_name_H-M_alt    "P 1"
_space_group_IT_number       1

loop_
  _space_group_symop_operation_xyz
  'x, y, z'

loop_
  _atom_site_type_symbol
  _atom_site_label
  _atom_site_symmetry_multiplicity
  _atom_site_fract_x
  _atom_site_fract_y
  _atom_site_fract_z
  _atom_site_occupancy
  Ba  Ba1       1.0  0.5615196061708058  0.1960217891363114  0.6389520996303026  1.0000
  Ti  Ti1       1.0  0.1301658530095602  0.69564246056534  0.7102284807333046  1.0000
  O   O1        1.0  0.616579303444052  0.1946893513811456  0.09582373707361702  1.0000
  O   O2        1.0  0.00999680880860483  0.4569530067015644  0.48129673039749976  1.0000
  O   O3        1.0  0.555626181286171  0.6956983673724233  0.7004553805044419  1.0000
  O   O4        1.0  0.216170007233563  0.9551779847219796  0.31928533736532966  1.0000
  O   O5        1.0  0.09984914121669548  0.9444829703444987  0.898235259135163  1.0000
  Ba  Ba2       1.0  0.6908777697542373  0.6959747278583683  0.15791292512190352  1.0000
  O   O6        1.0  0.2154594064661287  0.4360390992946531  0.3174561538731245  1.0000
  Ti  Ti2       1.0  0.1829207291479625  0.1949311160042998  0.08623297854945922  1.0000
  O   O7        1.0  0.00818461245689655  0.9341947892123631  0.4817693164180838  1.0000
  O   O8        1.0  0.09835230729382127  0.4438297994489017  0.896278671656614  1.0000
