data_image406
_chemical_formula_structural       BaOTiO2
_chemical_formula_sum              "Ba1 O3 Ti1"
_cell_length_a       3.9726446272867144
_cell_length_b       4.110554716553263
_cell_length_c       4.143927574157715
_cell_angle_alpha    89.56099209474577
_cell_angle_beta     90.12593753944547
_cell_angle_gamma    90.12250194706098

_space_group_name_H-M_alt    "P 1"
_space_group_IT_number       1

loop_
  _space_group_symop_operation_xyz
  'x, y, z'

loop_
  _atom_site_type_symbol
  _atom_site_label
  _atom_site_symmetry_multiplicity
  _atom_site_fract_x
  _atom_site_fract_y
  _atom_site_fract_z
  _atom_site_occupancy
  Ba  Ba1       1.0  0.8561565599307005  0.9273759156609332  0.7329032170786047  1.0000
  O   O1        1.0  0.3541769479758838  0.9603751528071818  0.2504794134626482  1.0000
  Ti  Ti1       1.0  0.35743554250105375  0.4112412162515779  0.21519731772419518  1.0000
  O   O2        1.0  0.8537245844155995  0.4511745118344452  0.25774558081231114  1.0000
  O   O3        1.0  0.3546013373821141  0.4425515007514827  0.7699014094196668  1.0000
