data_image524
_chemical_formula_structural       O2BaTi
_chemical_formula_sum              "O2 Ba1 Ti1"
_cell_length_a       3.25916119015322
_cell_length_b       3.2604966268744278
_cell_length_c       7.0792508125305185
_cell_angle_alpha    76.68717860283277
_cell_angle_beta     76.68626320538839
_cell_angle_gamma    59.92524321755379

_space_group_name_H-M_alt    "P 1"
_space_group_IT_number       1

loop_
  _space_group_symop_operation_xyz
  'x, y, z'

loop_
  _atom_site_type_symbol
  _atom_site_label
  _atom_site_symmetry_multiplicity
  _atom_site_fract_x
  _atom_site_fract_y
  _atom_site_fract_z
  _atom_site_occupancy
  O   O1        1.0  0.07970668808074811  0.2529978469475896  0.3378548068680988  1.0000
  O   O2        1.0  0.8325336047156615  0.005834034455126861  0.0792898215843357  1.0000
  Ba  Ba1       1.0  0.95559369778787  0.12864803545403958  0.7086247612141254  1.0000
  Ti  Ti1       1.0  0.45623208596337683  0.6294693953970557  0.20858092856776264  1.0000
