data_image505
_chemical_formula_structural       BaO3TiO
_chemical_formula_sum              "Ba1 O4 Ti1"
_cell_length_a       3.9241615380601984
_cell_length_b       4.215483781071353
_cell_length_c       5.179452419281006
_cell_angle_alpha    89.65610249112078
_cell_angle_beta     84.1395023994254
_cell_angle_gamma    89.78110862072465

_space_group_name_H-M_alt    "P 1"
_space_group_IT_number       1

loop_
  _space_group_symop_operation_xyz
  'x, y, z'

loop_
  _atom_site_type_symbol
  _atom_site_label
  _atom_site_symmetry_multiplicity
  _atom_site_fract_x
  _atom_site_fract_y
  _atom_site_fract_z
  _atom_site_occupancy
  Ba  Ba1       1.0  0.6527776896773976  0.1844875155847252  0.7485494352662497  1.0000
  O   O1        1.0  0.5944037838050016  0.6989620569763637  0.11858396120934127  1.0000
  O   O2        1.0  0.9770921054550571  0.6908171101054162  0.5323656067586684  1.0000
  O   O3        1.0  0.09567656731946832  0.22173651046633822  0.13220389718106804  1.0000
  Ti  Ti1       1.0  0.10815685660326733  0.6399044084419518  0.1563257661160735  1.0000
  O   O4        1.0  0.20850752531225866  0.7002872596230874  0.738970636013327  1.0000
