data_image138
_chemical_formula_structural       BaTiO2
_chemical_formula_sum              "Ba1 Ti1 O2"
_cell_length_a       3.292786763901108
_cell_length_b       3.2948480647060756
_cell_length_c       6.273607730865478
_cell_angle_alpha    74.84407677705822
_cell_angle_beta     74.83999938926081
_cell_angle_gamma    60.09907244966048

_space_group_name_H-M_alt    "P 1"
_space_group_IT_number       1

loop_
  _space_group_symop_operation_xyz
  'x, y, z'

loop_
  _atom_site_type_symbol
  _atom_site_label
  _atom_site_symmetry_multiplicity
  _atom_site_fract_x
  _atom_site_fract_y
  _atom_site_fract_z
  _atom_site_occupancy
  Ba  Ba1       1.0  0.44019329081767605  0.23856343635223484  0.2404175356308234  1.0000
  Ti  Ti1       1.0  0.940179191889436  0.7384658308142288  0.7404548040875523  1.0000
  O   O1        1.0  0.662243353757465  0.460394029676919  0.5741152638076216  1.0000
  O   O2        1.0  0.21804087786642534  0.016555878731391707  0.9067829332904871  1.0000
