data_image769
_chemical_formula_structural       OBaTiOBaTiBaO3TiOTiO2
_chemical_formula_sum              "O8 Ba3 Ti4"
_cell_length_a       4.048484959332299
_cell_length_b       5.80318658391308
_cell_length_c       10.100223541259766
_cell_angle_alpha    90.11923029202093
_cell_angle_beta     90.03206341306517
_cell_angle_gamma    90.03549216571412

_space_group_name_H-M_alt    "P 1"
_space_group_IT_number       1

loop_
  _space_group_symop_operation_xyz
  'x, y, z'

loop_
  _atom_site_type_symbol
  _atom_site_label
  _atom_site_symmetry_multiplicity
  _atom_site_fract_x
  _atom_site_fract_y
  _atom_site_fract_z
  _atom_site_occupancy
  O   O1        1.0  0.5438275519799127  0.48278730874887926  0.7295461388142356  1.0000
  Ba  Ba1       1.0  0.5441693399484667  0.7377800777259828  0.36677999237005027  1.0000
  Ti  Ti1       1.0  0.04402733014418708  0.2378972742896418  0.37816738479877143  1.0000
  O   O2        1.0  0.04375962913505545  0.23727668458843174  0.5736364855002516  1.0000
  Ba  Ba2       1.0  0.04388845361635069  0.2389487403023142  0.8301160266430699  1.0000
  Ti  Ti2       1.0  0.5437944537668093  0.738729668084299  0.8429434045214997  1.0000
  Ba  Ba3       1.0  0.5437710970191397  0.23738796564061088  0.12241139620193603  1.0000
  O   O3        1.0  0.04380132047506803  0.7387359644832101  0.8834466288571599  1.0000
  O   O4        1.0  0.043978893270019734  0.49197042383626743  0.2346076043474934  1.0000
  O   O5        1.0  0.043864456869230316  0.983671673023716  0.23411724231048398  1.0000
  Ti  Ti3       1.0  0.043825658142363236  0.7375395473001113  0.08533408008650183  1.0000
  O   O6        1.0  0.5440300586554625  0.2380798408527027  0.3836484575543623  1.0000
  Ti  Ti4       1.0  0.5437649261449146  0.23801973965428908  0.584847205458735  1.0000
  O   O7        1.0  0.5437045620723334  0.994286935671184  0.7298868970967185  1.0000
  O   O8        1.0  0.543819955495258  0.7370888134275431  0.06041182492328222  1.0000
