data_image959
_chemical_formula_structural       BaTiBaO2TiO4
_chemical_formula_sum              "Ba2 Ti2 O6"
_cell_length_a       5.657460494198087
_cell_length_b       5.661518918795296
_cell_length_c       5.841578006744385
_cell_angle_alpha    118.88089112983691
_cell_angle_beta     118.9106868002976
_cell_angle_gamma    89.83103663767298

_space_group_name_H-M_alt    "P 1"
_space_group_IT_number       1

loop_
  _space_group_symop_operation_xyz
  'x, y, z'

loop_
  _atom_site_type_symbol
  _atom_site_label
  _atom_site_symmetry_multiplicity
  _atom_site_fract_x
  _atom_site_fract_y
  _atom_site_fract_z
  _atom_site_occupancy
  Ba  Ba1       1.0  0.7367761524729464  0.005014064301578358  0.0798619164281485  1.0000
  Ti  Ti1       1.0  0.9973094541809518  0.7737764701105285  0.5985078199448781  1.0000
  Ba  Ba2       1.0  0.23677672234433741  0.5050140980777169  0.0798603914553874  1.0000
  O   O1        1.0  0.21664977034155858  0.9769467130618589  0.5487153302510691  1.0000
  O   O2        1.0  0.7198414590710948  0.97674207557742  0.5481552921894587  1.0000
  Ti  Ti2       1.0  0.49728587803006347  0.27375836234586437  0.5984638600032676  1.0000
  O   O3        1.0  0.219833796158865  0.4767528303489851  0.5481575924236057  1.0000
  O   O4        1.0  0.7166510327049025  0.47695541941850106  0.5487051555891886  1.0000
  O   O5        1.0  0.7079148909306457  0.47217016164108955  0.024870225396660384  1.0000
  O   O6        1.0  0.20795285814762948  0.9722144563544669  0.024957536832553133  1.0000
