data_image744
_chemical_formula_structural       BaTi2OTiO6
_chemical_formula_sum              "Ba1 Ti3 O7"
_cell_length_a       3.79146039103033
_cell_length_b       5.92698556678453
_cell_length_c       8.3810453414917
_cell_angle_alpha    108.70982430224002
_cell_angle_beta     103.00751727560419
_cell_angle_gamma    90.17131714315556

_space_group_name_H-M_alt    "P 1"
_space_group_IT_number       1

loop_
  _space_group_symop_operation_xyz
  'x, y, z'

loop_
  _atom_site_type_symbol
  _atom_site_label
  _atom_site_symmetry_multiplicity
  _atom_site_fract_x
  _atom_site_fract_y
  _atom_site_fract_z
  _atom_site_occupancy
  Ba  Ba1       1.0  0.10763861501576738  0.5167693241244103  0.5508026751852879  1.0000
  Ti  Ti1       1.0  0.403780842364408  0.3412373361076574  0.1495700927054912  1.0000
  Ti  Ti2       1.0  0.7452059691409559  0.14848816403972914  0.8335912008728483  1.0000
  O   O1        1.0  0.4823634107992188  0.20153672835535313  0.31220683216721884  1.0000
  Ti  Ti3       1.0  0.5713260590185608  0.9696175723099814  0.4460814736146197  1.0000
  O   O2        1.0  0.6788464464206234  0.325112772704144  0.6977359125884481  1.0000
  O   O3        1.0  0.8751328340914521  0.3424839193545015  0.09164818017100351  1.0000
  O   O4        1.0  0.05855220769672693  0.012558562960669498  0.46493716483537095  1.0000
  O   O5        1.0  0.47721956645585584  0.6607577817162661  0.2926116114815295  1.0000
  O   O6        1.0  0.655457035746397  0.8582062517436042  0.6537537480609981  1.0000
  O   O7        1.0  0.279781871994381  0.13100420756696224  0.9021891654406943  1.0000
