data_image831
_chemical_formula_structural       OTiBaO
_chemical_formula_sum              "O2 Ti1 Ba1"
_cell_length_a       3.309562869504283
_cell_length_b       3.312264219614708
_cell_length_c       6.304358959197998
_cell_angle_alpha    74.80750948527825
_cell_angle_beta     74.7955014156996
_cell_angle_gamma    60.03875733466083

_space_group_name_H-M_alt    "P 1"
_space_group_IT_number       1

loop_
  _space_group_symop_operation_xyz
  'x, y, z'

loop_
  _atom_site_type_symbol
  _atom_site_label
  _atom_site_symmetry_multiplicity
  _atom_site_fract_x
  _atom_site_fract_y
  _atom_site_fract_z
  _atom_site_occupancy
  O   O1        1.0  0.22551874034973476  0.3532359083548155  0.3884010437939038  1.0000
  Ti  Ti1       1.0  0.5034033482380887  0.6312398017288116  0.5543644391623958  1.0000
  Ba  Ba1       1.0  0.003211549378206167  0.1313385197552331  0.05432532961302195  1.0000
  O   O2        1.0  0.7814548677111712  0.9095594814857564  0.7202316830976069  1.0000
