data_image73
_chemical_formula_structural       BaTiO2
_chemical_formula_sum              "Ba1 Ti1 O2"
_cell_length_a       4.098423450990369
_cell_length_b       4.100678538255933
_cell_length_c       6.704431056976318
_cell_angle_alpha    72.20585004461323
_cell_angle_beta     72.22693431280963
_cell_angle_gamma    60.01055585131332

_space_group_name_H-M_alt    "P 1"
_space_group_IT_number       1

loop_
  _space_group_symop_operation_xyz
  'x, y, z'

loop_
  _atom_site_type_symbol
  _atom_site_label
  _atom_site_symmetry_multiplicity
  _atom_site_fract_x
  _atom_site_fract_y
  _atom_site_fract_z
  _atom_site_occupancy
  Ba  Ba1       1.0  0.33311941781972454  0.5164124904883356  0.79022552285286  1.0000
  Ti  Ti1       1.0  0.8319297594252545  0.015906314348162285  0.29025254417319424  1.0000
  O   O1        1.0  0.9310110405815447  0.11408795314722762  0.9966505321969332  1.0000
  O   O2        1.0  0.7352333952217259  0.9188041384182202  0.583863475879649  1.0000
