data_image790
_chemical_formula_structural       OTi2BaO3BaTi2O4BaO3
_chemical_formula_sum              "O11 Ti4 Ba3"
_cell_length_a       4.100892441384784
_cell_length_b       5.714267334121027
_cell_length_c       11.249970436096191
_cell_angle_alpha    90.08810511201159
_cell_angle_beta     90.0948533468008
_cell_angle_gamma    90.01074639234741

_space_group_name_H-M_alt    "P 1"
_space_group_IT_number       1

loop_
  _space_group_symop_operation_xyz
  'x, y, z'

loop_
  _atom_site_type_symbol
  _atom_site_label
  _atom_site_symmetry_multiplicity
  _atom_site_fract_x
  _atom_site_fract_y
  _atom_site_fract_z
  _atom_site_occupancy
  O   O1        1.0  0.6884350871631609  0.30546734121318214  0.8765492226708216  1.0000
  Ti  Ti1       1.0  0.7378377256462425  0.5598164326880783  0.7595876619490185  1.0000
  Ti  Ti2       1.0  0.613209231662369  0.560541862276389  0.5026819781938683  1.0000
  Ba  Ba1       1.0  0.2116833810662234  0.05989536063049084  0.7307898691867747  1.0000
  O   O2        1.0  0.18034816489834074  0.560941958456816  0.24568895029336832  1.0000
  O   O3        1.0  0.17790252917518845  0.5599378516008907  0.7607011199820036  1.0000
  O   O4        1.0  0.6831410884728254  0.7818085904123785  0.6242138235124036  1.0000
  Ba  Ba2       1.0  0.2170590997369357  0.5603304120212358  0.003030996579505875  1.0000
  Ti  Ti3       1.0  0.7401502673626893  0.5608549847881872  0.2461519803965984  1.0000
  Ti  Ti4       1.0  0.7329047200203248  0.06027980730914246  0.0029303499548585304  1.0000
  O   O5        1.0  0.6893202855205314  0.8154022179916912  0.13006831138364797  1.0000
  O   O6        1.0  0.6882956408165658  0.8150163487184686  0.8766659748214748  1.0000
  O   O7        1.0  0.1757486371239431  0.06037878539173551  0.003538640218872231  1.0000
  O   O8        1.0  0.6892074665314888  0.30612589810422675  0.12990033856458272  1.0000
  Ba  Ba3       1.0  0.21424526264819543  0.06087549753837661  0.27510933444669394  1.0000
  O   O9        1.0  0.686828059944648  0.7823276759667067  0.3827188039365119  1.0000
  O   O10       1.0  0.6831328607512633  0.3387019707715043  0.6237480668407609  1.0000
  O   O11       1.0  0.6870767685746849  0.3390394654118047  0.3822517353964329  1.0000
