data_image575
_chemical_formula_structural       OBaTiO2
_chemical_formula_sum              "O3 Ba1 Ti1"
_cell_length_a       3.977747002798377
_cell_length_b       4.114447167781792
_cell_length_c       4.141754627227783
_cell_angle_alpha    90.42921159630932
_cell_angle_beta     89.97858986090145
_cell_angle_gamma    90.02375107393566

_space_group_name_H-M_alt    "P 1"
_space_group_IT_number       1

loop_
  _space_group_symop_operation_xyz
  'x, y, z'

loop_
  _atom_site_type_symbol
  _atom_site_label
  _atom_site_symmetry_multiplicity
  _atom_site_fract_x
  _atom_site_fract_y
  _atom_site_fract_z
  _atom_site_occupancy
  O   O1        1.0  0.6995710656687409  0.8687322713068248  0.20163878583774997  1.0000
  Ba  Ba1       1.0  0.6995005515267042  0.3922102058774478  0.6769091718627114  1.0000
  Ti  Ti1       1.0  0.1996363573175269  0.9088127247192801  0.1594600901109033  1.0000
  O   O2        1.0  0.1995345776985338  0.8772586422530056  0.7139291228583757  1.0000
  O   O3        1.0  0.199789735866433  0.3589761293108024  0.1947792857494672  1.0000
