data_image523
_chemical_formula_structural       Ba2O3Ti2O3
_chemical_formula_sum              "Ba2 O6 Ti2"
_cell_length_a       4.329648971557675
_cell_length_b       5.6290145222886965
_cell_length_c       5.632846355438232
_cell_angle_alpha    90.0412773369807
_cell_angle_beta     90.00000933466754
_cell_angle_gamma    89.98608940936907

_space_group_name_H-M_alt    "P 1"
_space_group_IT_number       1

loop_
  _space_group_symop_operation_xyz
  'x, y, z'

loop_
  _atom_site_type_symbol
  _atom_site_label
  _atom_site_symmetry_multiplicity
  _atom_site_fract_x
  _atom_site_fract_y
  _atom_site_fract_z
  _atom_site_occupancy
  Ba  Ba1       1.0  0.2992407750143633  0.20787642284908975  0.11236021409361846  1.0000
  Ba  Ba2       1.0  0.2994416754014919  0.7078571780349625  0.612371202415116  1.0000
  O   O1        1.0  0.7615269834824128  0.45859355260551765  0.8623983006375424  1.0000
  O   O2        1.0  0.23455741540400657  0.7080888155300255  0.1123350273788431  1.0000
  O   O3        1.0  0.7617603288591237  0.9586538939704609  0.8621069754179175  1.0000
  Ti  Ti1       1.0  0.8165916240991159  0.2071354993262659  0.612476831873313  1.0000
  Ti  Ti2       1.0  0.816546324034562  0.7071667714558569  0.1124897631163576  1.0000
  O   O4        1.0  0.7617577429795165  0.4586479228387007  0.3620985484678754  1.0000
  O   O5        1.0  0.7615137898020206  0.9586190155984428  0.36236093099692573  1.0000
  O   O6        1.0  0.2345515438622891  0.20808242282994807  0.6123170718428013  1.0000
