data_image100
_chemical_formula_structural       BaTiOTiO5
_chemical_formula_sum              "Ba1 Ti2 O6"
_cell_length_a       5.395836530948919
_cell_length_b       5.325146733659313
_cell_length_c       5.516231060028076
_cell_angle_alpha    89.8199792159594
_cell_angle_beta     90.28842091546773
_cell_angle_gamma    119.72350692335378

_space_group_name_H-M_alt    "P 1"
_space_group_IT_number       1

loop_
  _space_group_symop_operation_xyz
  'x, y, z'

loop_
  _atom_site_type_symbol
  _atom_site_label
  _atom_site_symmetry_multiplicity
  _atom_site_fract_x
  _atom_site_fract_y
  _atom_site_fract_z
  _atom_site_occupancy
  Ba  Ba1       1.0  0.6117385158337095  0.12820562186282392  0.7052224541935959  1.0000
  Ti  Ti1       1.0  0.2091458947664243  0.4274617811224302  0.2054690404657221  1.0000
  O   O1        1.0  0.6124274728611755  0.7032177112750199  0.3218800117811254  1.0000
  Ti  Ti2       1.0  0.014377169771819576  0.8296476090684293  0.2051020880784129  1.0000
  O   O2        1.0  0.006466165029515765  0.5224513796316668  0.41389953003024627  1.0000
  O   O3        1.0  0.2180044800749528  0.1286736901587618  0.41416630391200004  1.0000
  O   O4        1.0  0.216677834938249  0.7344426290081127  0.9965268291476256  1.0000
  O   O5        1.0  0.6111064789993685  0.5546362874720046  0.08838483821386034  1.0000
  O   O6        1.0  0.005828769253175359  0.12858772622341913  0.9963161872482941  1.0000
