data_image670
_chemical_formula_structural       O2TiBa2O
_chemical_formula_sum              "O3 Ti1 Ba2"
_cell_length_a       3.949430294470668
_cell_length_b       3.9503040313729607
_cell_length_c       7.604671001434326
_cell_angle_alpha    89.99996152334275
_cell_angle_beta     90.01056880712056
_cell_angle_gamma    89.99650544762927

_space_group_name_H-M_alt    "P 1"
_space_group_IT_number       1

loop_
  _space_group_symop_operation_xyz
  'x, y, z'

loop_
  _atom_site_type_symbol
  _atom_site_label
  _atom_site_symmetry_multiplicity
  _atom_site_fract_x
  _atom_site_fract_y
  _atom_site_fract_z
  _atom_site_occupancy
  O   O1        1.0  0.8649852198499384  0.2757815966557998  0.3319778686960851  1.0000
  O   O2        1.0  0.865180508875305  0.7759754532729394  0.8341246106181052  1.0000
  Ti  Ti1       1.0  0.8650046474277848  0.7757699694990732  0.3318879182279584  1.0000
  Ba  Ba1       1.0  0.36501792216577345  0.27577317939685847  0.6165531291000358  1.0000
  Ba  Ba2       1.0  0.36499650529753663  0.2757284702947318  0.046550691004402345  1.0000
  O   O3        1.0  0.36497317789583505  0.7757789895153249  0.3322579103506089  1.0000
