data_image14
_chemical_formula_structural       BaTiO2Ba2OTiOBaOBa2O2BaO4
_chemical_formula_sum              "Ba7 Ti2 O11"
_cell_length_a       6.97608775632607
_cell_length_b       6.993935280009116
_cell_length_c       10.054414749145508
_cell_angle_alpha    73.99887653410632
_cell_angle_beta     77.6848228939614
_cell_angle_gamma    69.01099975463121

_space_group_name_H-M_alt    "P 1"
_space_group_IT_number       1

loop_
  _space_group_symop_operation_xyz
  'x, y, z'

loop_
  _atom_site_type_symbol
  _atom_site_label
  _atom_site_symmetry_multiplicity
  _atom_site_fract_x
  _atom_site_fract_y
  _atom_site_fract_z
  _atom_site_occupancy
  Ba  Ba1       1.0  0.5553226936274508  0.5615039028286689  0.791090128435718  1.0000
  Ti  Ti1       1.0  0.519857057504533  0.1948017640408169  0.13003246890018544  1.0000
  O   O1        1.0  0.5563398068210783  0.3021121699485271  0.2669170521836351  1.0000
  O   O2        1.0  0.01595139692289528  0.37005914671378237  0.5766867212744848  1.0000
  Ba  Ba2       1.0  0.1636380448493843  0.274699126235573  0.8194376378604142  1.0000
  Ba  Ba3       1.0  0.9809498787542792  0.17313290825336378  0.23040656568503706  1.0000
  O   O3        1.0  0.6552750237804239  0.7431495619470362  0.5285642174531862  1.0000
  Ti  Ti2       1.0  0.9169960598021257  0.6151649765400249  0.4529144892153724  1.0000
  O   O4        1.0  0.8569514654801133  0.639858272734188  0.8525553629877294  1.0000
  Ba  Ba4       1.0  0.37441306540080554  0.10272106670943677  0.5028515420996013  1.0000
  O   O5        1.0  0.21514032377347872  0.899590552331642  0.7774253960287041  1.0000
  Ba  Ba5       1.0  0.0069344017561781286  0.7310721791068503  0.02045407031804722  1.0000
  Ba  Ba6       1.0  0.8706052077014327  0.9765992122025553  0.6678372683900828  1.0000
  O   O6        1.0  0.40590512511502347  0.9920726482022175  0.22805555981267683  1.0000
  O   O7        1.0  0.32563609459322596  0.374894192044844  0.01483172400228459  1.0000
  Ba  Ba7       1.0  0.46468136159219403  0.6105811937649503  0.3841210914457117  1.0000
  O   O8        1.0  0.7880888605719103  0.12011381689202436  0.03699350252244129  1.0000
  O   O9        1.0  0.8981580053092836  0.5434004792094791  0.293889096434909  1.0000
  O   O10       1.0  0.5015105624535237  0.2891054418703876  0.6389183808679585  1.0000
  O   O11       1.0  0.051872742897987725  0.8133194732626291  0.4283075389813833  1.0000
