data_image504
_chemical_formula_structural       Ba2Ti2OTi2O2BaO2TiO3
_chemical_formula_sum              "Ba3 Ti5 O8"
_cell_length_a       4.033347617066812
_cell_length_b       5.724252623157339
_cell_length_c       11.518180847167967
_cell_angle_alpha    89.90403834140422
_cell_angle_beta     89.9958839004656
_cell_angle_gamma    89.99904627804708

_space_group_name_H-M_alt    "P 1"
_space_group_IT_number       1

loop_
  _space_group_symop_operation_xyz
  'x, y, z'

loop_
  _atom_site_type_symbol
  _atom_site_label
  _atom_site_symmetry_multiplicity
  _atom_site_fract_x
  _atom_site_fract_y
  _atom_site_fract_z
  _atom_site_occupancy
  Ba  Ba1       1.0  0.34585069249229244  0.8459632141525742  0.22983162417543043  1.0000
  Ba  Ba2       1.0  0.3455769564057393  0.3449075643636502  0.47662561401534415  1.0000
  Ti  Ti1       1.0  0.8455126889832647  0.8452265334433214  0.480852724106563  1.0000
  Ti  Ti2       1.0  0.8453621088651125  0.8465943603727185  0.7363304115432892  1.0000
  O   O1        1.0  0.8451543787834656  0.07542306522384892  0.6110023263617907  1.0000
  Ti  Ti3       1.0  0.8459110332236945  0.8466415578772402  0.988281269502377  1.0000
  Ti  Ti4       1.0  0.8458219990198945  0.3459654662103198  0.23734165123668294  1.0000
  O   O2        1.0  0.8460126364853016  0.5990864912737508  0.11305217910779834  1.0000
  O   O3        1.0  0.8451971906125136  0.6164252442923553  0.6114991052401801  1.0000
  Ba  Ba3       1.0  0.3455083186094887  0.34686284669375833  0.7598534479934477  1.0000
  O   O4        1.0  0.8459671093800918  0.09345172758076215  0.11306654453029877  1.0000
  O   O5        1.0  0.8456673713461887  0.5966877727525607  0.3608629868050783  1.0000
  Ti  Ti5       1.0  0.8455618844135542  0.3465484089872614  0.9910067288903676  1.0000
  O   O6        1.0  0.8454591170748761  0.5978538888508503  0.8625361846175305  1.0000
  O   O7        1.0  0.8454783997804659  0.09541769724408791  0.8623688334226762  1.0000
  O   O8        1.0  0.8456760012070963  0.09437303856754731  0.36071862445195213  1.0000
