data_image901
_chemical_formula_structural       BaOBaOTiO2
_chemical_formula_sum              "Ba2 O4 Ti1"
_cell_length_a       4.037851305861332
_cell_length_b       4.040019181826234
_cell_length_c       7.303283214569092
_cell_angle_alpha    106.05925838004232
_cell_angle_beta     106.02715024118304
_cell_angle_gamma    89.99290578184018

_space_group_name_H-M_alt    "P 1"
_space_group_IT_number       1

loop_
  _space_group_symop_operation_xyz
  'x, y, z'

loop_
  _atom_site_type_symbol
  _atom_site_label
  _atom_site_symmetry_multiplicity
  _atom_site_fract_x
  _atom_site_fract_y
  _atom_site_fract_z
  _atom_site_occupancy
  Ba  Ba1       1.0  0.14244390242923807  0.5160034022259382  0.05788768203001006  1.0000
  O   O1        1.0  0.6464211733412006  0.020151905197801013  0.06586253285714483  1.0000
  Ba  Ba2       1.0  0.8546715871527759  0.2279162109733673  0.48254165936218923  1.0000
  O   O2        1.0  0.3505472819429875  0.72365187509574  0.4743436839477005  1.0000
  Ti  Ti1       1.0  0.4984944535010576  0.8717914998065409  0.7700304136746305  1.0000
  O   O3        1.0  0.4985243726301329  0.37208663099135636  0.7701779200396254  1.0000
  O   O4        1.0  0.9985124755820695  0.8721439857622092  0.7701890337763196  1.0000
