data_image808
_chemical_formula_structural       Ba2TiOTiO5
_chemical_formula_sum              "Ba2 Ti2 O6"
_cell_length_a       4.125896720944332
_cell_length_b       4.113590083752709
_cell_length_c       7.983803749084473
_cell_angle_alpha    90.02260360261755
_cell_angle_beta     90.0206160167459
_cell_angle_gamma    89.54717459693826

_space_group_name_H-M_alt    "P 1"
_space_group_IT_number       1

loop_
  _space_group_symop_operation_xyz
  'x, y, z'

loop_
  _atom_site_type_symbol
  _atom_site_label
  _atom_site_symmetry_multiplicity
  _atom_site_fract_x
  _atom_site_fract_y
  _atom_site_fract_z
  _atom_site_occupancy
  Ba  Ba1       1.0  0.08217827764396174  0.6016045064971165  0.8252344785907693  1.0000
  Ba  Ba2       1.0  0.08233883290556514  0.601201347827093  0.32523007202519255  1.0000
  Ti  Ti1       1.0  0.599506608406747  0.11801104550801327  0.5758301956698969  1.0000
  O   O1        1.0  0.5590453104339034  0.07862692543368062  0.8246518440108113  1.0000
  Ti  Ti2       1.0  0.5992163774935321  0.11781400841054515  0.07574995456714739  1.0000
  O   O2        1.0  0.5588142292895203  0.07830172177326306  0.3246669972972812  1.0000
  O   O3        1.0  0.56486997942236  0.5675918094610826  0.07508486860948846  1.0000
  O   O4        1.0  0.04727053171739824  0.08514890488153046  0.5749532997448169  1.0000
  O   O5        1.0  0.04697447909652926  0.08488984640137834  0.07508093222647137  1.0000
  O   O6        1.0  0.565337021167725  0.5677658604774918  0.574943532088466  1.0000
