data_image283
_chemical_formula_structural       BaO2TiBa2OTiO4
_chemical_formula_sum              "Ba3 O7 Ti2"
_cell_length_a       4.07487514027788
_cell_length_b       4.077668676111685
_cell_length_c       11.095265388488768
_cell_angle_alpha    100.61713473940688
_cell_angle_beta     100.55556197955184
_cell_angle_gamma    89.8304841138096

_space_group_name_H-M_alt    "P 1"
_space_group_IT_number       1

loop_
  _space_group_symop_operation_xyz
  'x, y, z'

loop_
  _atom_site_type_symbol
  _atom_site_label
  _atom_site_symmetry_multiplicity
  _atom_site_fract_x
  _atom_site_fract_y
  _atom_site_fract_z
  _atom_site_occupancy
  Ba  Ba1       1.0  0.22342539061071445  0.267956861944394  0.4902161912164076  1.0000
  O   O1        1.0  0.4362601787269674  0.9673263257798423  0.9354288703052959  1.0000
  O   O2        1.0  0.9246578681754501  0.47896827037014394  0.935469202377385  1.0000
  Ti  Ti1       1.0  0.46105202199433387  0.5047174642881962  0.9347687972398678  1.0000
  Ba  Ba2       1.0  0.8592422136491941  0.9019308864444164  0.7582440768721085  1.0000
  Ba  Ba3       1.0  0.042082095444092006  0.08561615773149053  0.12415387005407684  1.0000
  O   O3        1.0  0.3416606164423798  0.38429964270070605  0.7522248878229446  1.0000
  Ti  Ti2       1.0  0.6494649796839349  0.6944310455504132  0.3137403575774975  1.0000
  O   O4        1.0  0.11196694802144154  0.6677280523286946  0.31291270315306013  1.0000
  O   O5        1.0  0.711327446912486  0.7563436663472304  0.4963043101149287  1.0000
  O   O6        1.0  0.5245990631724821  0.5683252402061717  0.12427190086716364  1.0000
  O   O7        1.0  0.6234312929490757  0.1562474308857131  0.3129266614479605  1.0000
