data_image242
_chemical_formula_structural       BaTiOBaO2
_chemical_formula_sum              "Ba2 Ti1 O3"
_cell_length_a       3.952059459446416
_cell_length_b       4.040049468767593
_cell_length_c       7.397760391235352
_cell_angle_alpha    105.82279820175333
_cell_angle_beta     105.47569278511305
_cell_angle_gamma    90.03352526467138

_space_group_name_H-M_alt    "P 1"
_space_group_IT_number       1

loop_
  _space_group_symop_operation_xyz
  'x, y, z'

loop_
  _atom_site_type_symbol
  _atom_site_label
  _atom_site_symmetry_multiplicity
  _atom_site_fract_x
  _atom_site_fract_y
  _atom_site_fract_z
  _atom_site_occupancy
  Ba  Ba1       1.0  0.27526378253886613  0.9466862567816328  0.027789177037239664  1.0000
  Ti  Ti1       1.0  0.925553212771074  0.5969820376907168  0.3284026716067388  1.0000
  O   O1        1.0  0.06867775050843596  0.7400738849144454  0.6145704143083793  1.0000
  Ba  Ba2       1.0  0.5757026851092276  0.2471450518803742  0.6287831035431111  1.0000
  O   O2        1.0  0.9255058041758097  0.09690624047076034  0.32825109451799583  1.0000
  O   O3        1.0  0.7821890621221993  0.45370477099414586  0.041885883301063916  1.0000
