data_image1050
_chemical_formula_structural       BaTi2OBaO3
_chemical_formula_sum              "Ba2 Ti2 O4"
_cell_length_a       3.8919889722252816
_cell_length_b       3.886830252464673
_cell_length_c       11.342286109924316
_cell_angle_alpha    100.06567267363978
_cell_angle_beta     100.2318238140362
_cell_angle_gamma    90.43830927078632

_space_group_name_H-M_alt    "P 1"
_space_group_IT_number       1

loop_
  _space_group_symop_operation_xyz
  'x, y, z'

loop_
  _atom_site_type_symbol
  _atom_site_label
  _atom_site_symmetry_multiplicity
  _atom_site_fract_x
  _atom_site_fract_y
  _atom_site_fract_z
  _atom_site_occupancy
  Ba  Ba1       1.0  0.8259030149459835  0.8157109543913337  0.07208117712082267  1.0000
  Ti  Ti1       1.0  0.5099688450308131  0.49836526621329535  0.4449381125568349  1.0000
  Ti  Ti2       1.0  0.00959718852738468  0.9979823550006389  0.44421552244042495  1.0000
  O   O1        1.0  0.31450438401835296  0.30445586621277104  0.05035710681301484  1.0000
  Ba  Ba2       1.0  0.19325453541532878  0.18502773186017404  0.8180225107411163  1.0000
  O   O2        1.0  0.48234260836336434  0.9711335863278012  0.39195902441496316  1.0000
  O   O3        1.0  0.704643637596736  0.6961985955790781  0.8397198788417536  1.0000
  O   O4        1.0  0.037502041081199075  0.5254936332338598  0.4977328560647043  1.0000
