data_image546
_chemical_formula_structural       TiBaTiOBaO2TiOBaO5
_chemical_formula_sum              "Ti3 Ba3 O9"
_cell_length_a       4.1162948692311945
_cell_length_b       4.116466112038462
_cell_length_c       11.996060371398926
_cell_angle_alpha    89.9896889194542
_cell_angle_beta     89.99634152306277
_cell_angle_gamma    89.50040833147486

_space_group_name_H-M_alt    "P 1"
_space_group_IT_number       1

loop_
  _space_group_symop_operation_xyz
  'x, y, z'

loop_
  _atom_site_type_symbol
  _atom_site_label
  _atom_site_symmetry_multiplicity
  _atom_site_fract_x
  _atom_site_fract_y
  _atom_site_fract_z
  _atom_site_occupancy
  Ti  Ti1       1.0  0.9124503080862585  0.3070478115942587  0.4890251987502324  1.0000
  Ba  Ba1       1.0  0.39583129858626126  0.7903246439122947  0.6555584764924992  1.0000
  Ti  Ti2       1.0  0.9117071050231231  0.30654879298145676  0.15577512629611623  1.0000
  O   O1        1.0  0.36179488151265077  0.2735417580205275  0.48884893963879283  1.0000
  Ba  Ba2       1.0  0.3947824013294315  0.7895362739185684  0.3223375159713731  1.0000
  O   O2        1.0  0.36095504370511067  0.27279343426496744  0.15564780435937092  1.0000
  O   O3        1.0  0.8793258578566832  0.7564217087527891  0.8222088742465719  1.0000
  Ti  Ti3       1.0  0.9127204729622165  0.30722649847583416  0.822326658529002  1.0000
  O   O4        1.0  0.8734464338438954  0.26803866925097036  0.655486040989822  1.0000
  Ba  Ba3       1.0  0.3951606429844208  0.7898449134236113  0.9889428066574439  1.0000
  O   O5        1.0  0.877910035224903  0.7557103187403852  0.15562186890232563  1.0000
  O   O6        1.0  0.8727281167618028  0.2674597756400415  0.3221861541685616  1.0000
  O   O7        1.0  0.8790771089041498  0.7563588307746589  0.4888269787943479  1.0000
  O   O8        1.0  0.8731071340372669  0.2676860361264482  0.9888153853126499  1.0000
  O   O9        1.0  0.3620085658522612  0.27364278911837503  0.822162862881359  1.0000
