data_image1031
_chemical_formula_structural       Ti2O2Ba2O5Ti
_chemical_formula_sum              "Ti3 O7 Ba2"
_cell_length_a       4.081956466319996
_cell_length_b       6.027766044617131
_cell_length_c       8.222442626953125
_cell_angle_alpha    80.8752795744309
_cell_angle_beta     75.73838371009813
_cell_angle_gamma    70.15123151203545

_space_group_name_H-M_alt    "P 1"
_space_group_IT_number       1

loop_
  _space_group_symop_operation_xyz
  'x, y, z'

loop_
  _atom_site_type_symbol
  _atom_site_label
  _atom_site_symmetry_multiplicity
  _atom_site_fract_x
  _atom_site_fract_y
  _atom_site_fract_z
  _atom_site_occupancy
  Ti  Ti1       1.0  0.7914266616426248  0.10334131041130067  0.10359318251565498  1.0000
  Ti  Ti2       1.0  0.506377434619065  0.7924588361893261  0.983521021919471  1.0000
  O   O1        1.0  0.34588452853711166  0.7007606892799193  0.477958498829517  1.0000
  O   O2        1.0  0.9915886558907542  0.7892275750988964  0.012405751906127306  1.0000
  Ba  Ba1       1.0  0.014637090642823262  0.46979085137662047  0.31407957308232237  1.0000
  Ba  Ba2       1.0  0.30675695710343964  0.42639855412192296  0.772729720269266  1.0000
  O   O3        1.0  0.03355768783622375  0.19482521744079936  0.608719409399978  1.0000
  O   O4        1.0  0.6499835188023618  0.44792356758098306  0.04365029643819221  1.0000
  O   O5        1.0  0.30206641078538243  0.10669379108821019  0.0743934247459861  1.0000
  O   O6        1.0  0.6581294112386428  0.08570951105600773  0.3432015651093428  1.0000
  O   O7        1.0  0.5961673365618644  0.809086306371435  0.7437808381729157  1.0000
  Ti  Ti3       1.0  0.4222768542918957  0.9477204185845062  0.5433723951573801  1.0000
