data_image318
_chemical_formula_structural       OBaTiO
_chemical_formula_sum              "O2 Ba1 Ti1"
_cell_length_a       3.3178309443230107
_cell_length_b       3.3171595423757076
_cell_length_c       6.309717655181885
_cell_angle_alpha    74.78243606968506
_cell_angle_beta     74.77393169372674
_cell_angle_gamma    60.03899619227273

_space_group_name_H-M_alt    "P 1"
_space_group_IT_number       1

loop_
  _space_group_symop_operation_xyz
  'x, y, z'

loop_
  _atom_site_type_symbol
  _atom_site_label
  _atom_site_symmetry_multiplicity
  _atom_site_fract_x
  _atom_site_fract_y
  _atom_site_fract_z
  _atom_site_occupancy
  O   O1        1.0  0.5114331516432598  0.6226087081249404  0.10466089957176483  1.0000
  Ba  Ba1       1.0  0.28999402481891684  0.40117123005784394  0.7697381694988942  1.0000
  Ti  Ti1       1.0  0.7894697469711253  0.9007312784238127  0.2701030310823264  1.0000
  O   O2        1.0  0.06791751109120425  0.1792184752814926  0.4349950503970158  1.0000
