data_image35
_chemical_formula_structural       TiO2TiOBa4O3TiBaO4
_chemical_formula_sum              "Ti3 O10 Ba5"
_cell_length_a       4.062592670520417
_cell_length_b       4.066119238408987
_cell_length_c       17.7470760345459
_cell_angle_alpha    90.00846510873262
_cell_angle_beta     90.01628567626516
_cell_angle_gamma    90.02668122324802

_space_group_name_H-M_alt    "P 1"
_space_group_IT_number       1

loop_
  _space_group_symop_operation_xyz
  'x, y, z'

loop_
  _atom_site_type_symbol
  _atom_site_label
  _atom_site_symmetry_multiplicity
  _atom_site_fract_x
  _atom_site_fract_y
  _atom_site_fract_z
  _atom_site_occupancy
  Ti  Ti1       1.0  0.16473039604232637  0.09655458090748756  0.8253036078816102  1.0000
  O   O1        1.0  0.664416770681198  0.0966197594431303  0.05246675687715558  1.0000
  O   O2        1.0  0.16409920050178683  0.5964007351572853  0.824139350156678  1.0000
  Ti  Ti2       1.0  0.1639042164601056  0.09606781279949096  0.05253659938451861  1.0000
  O   O3        1.0  0.1640346838595801  0.09644698074856878  0.7118327659607446  1.0000
  Ba  Ba1       1.0  0.664163984223737  0.5964560984755629  0.9410243158075793  1.0000
  Ba  Ba2       1.0  0.6646789818009476  0.5964427229075064  0.38281488820920273  1.0000
  Ba  Ba3       1.0  0.6643571259585364  0.5964820375505948  0.16379473684870838  1.0000
  Ba  Ba4       1.0  0.16428044340941456  0.09644521388401332  0.5523157790384684  1.0000
  O   O4        1.0  0.6637757127908738  0.09645016921543231  0.8241406269701983  1.0000
  O   O5        1.0  0.16446081103502339  0.5962124178220147  0.28057372763304217  1.0000
  O   O6        1.0  0.1642119633091657  0.5968566449681093  0.05247267609136029  1.0000
  Ti  Ti3       1.0  0.1648324327309584  0.09664948264443488  0.27954451580743506  1.0000
  Ba  Ba5       1.0  0.6642906496201116  0.5964467378086503  0.7218879992942274  1.0000
  O   O7        1.0  0.6642920771160066  0.0963149567147232  0.28057564661919415  1.0000
  O   O8        1.0  0.16434154604010556  0.09649042675925192  0.1664475898422422  1.0000
  O   O9        1.0  0.16457446108731197  0.09634848810233235  0.3927775996300523  1.0000
  O   O10       1.0  0.16412395391406356  0.09654277049812503  0.9382379251254165  1.0000
