data_image915
_chemical_formula_structural       OTiBa2O6TiO
_chemical_formula_sum              "O8 Ti2 Ba2"
_cell_length_a       4.100360465592826
_cell_length_b       5.905332484100909
_cell_length_c       6.668562889099122
_cell_angle_alpha    89.87424507339105
_cell_angle_beta     96.37796484735657
_cell_angle_gamma    89.94297042274171

_space_group_name_H-M_alt    "P 1"
_space_group_IT_number       1

loop_
  _space_group_symop_operation_xyz
  'x, y, z'

loop_
  _atom_site_type_symbol
  _atom_site_label
  _atom_site_symmetry_multiplicity
  _atom_site_fract_x
  _atom_site_fract_y
  _atom_site_fract_z
  _atom_site_occupancy
  O   O1        1.0  0.5660337968779647  0.43516625395720354  0.3491185706984201  1.0000
  Ti  Ti1       1.0  0.4806257630881754  0.1725985409199811  0.7441513622253993  1.0000
  Ba  Ba1       1.0  0.8991935604565438  0.6715274640446324  0.6702333777735682  1.0000
  Ba  Ba2       1.0  0.023923125667296524  0.17163452823000072  0.19378670350279123  1.0000
  O   O2        1.0  0.46101299826521275  0.42378052756929535  0.9309632072763333  1.0000
  O   O3        1.0  0.4616337976451296  0.9237299506743231  0.9330735960720891  1.0000
  O   O4        1.0  0.35827572280902514  0.9348119140364775  0.5156243590229371  1.0000
  O   O5        1.0  0.35653212073733037  0.4085894296972889  0.5135733880817872  1.0000
  O   O6        1.0  0.011443467589381147  0.672249192080061  0.1335017081870823  1.0000
  O   O7        1.0  0.9114638412835536  0.17307558222424813  0.7307441846087439  1.0000
  Ti  Ti2       1.0  0.4422541771649385  0.6721661508974797  0.1199301667945274  1.0000
  O   O8        1.0  0.5653489933834229  0.9090031264964513  0.34983153450079557  1.0000
