data_image32
_chemical_formula_structural       OTiOBa
_chemical_formula_sum              "O2 Ti1 Ba1"
_cell_length_a       3.316233559920028
_cell_length_b       3.317252808681175
_cell_length_c       6.285289764404297
_cell_angle_alpha    74.74627740218766
_cell_angle_beta     74.71987753289004
_cell_angle_gamma    60.01125934712402

_space_group_name_H-M_alt    "P 1"
_space_group_IT_number       1

loop_
  _space_group_symop_operation_xyz
  'x, y, z'

loop_
  _atom_site_type_symbol
  _atom_site_label
  _atom_site_symmetry_multiplicity
  _atom_site_fract_x
  _atom_site_fract_y
  _atom_site_fract_z
  _atom_site_occupancy
  O   O1        1.0  0.037293236609372254  0.6296592809610424  0.7261364576709096  1.0000
  Ti  Ti1       1.0  0.3156076670836392  0.9075178087323652  0.8920657475581749  1.0000
  O   O2        1.0  0.593435705343491  0.1856212777132925  0.05804377234458314  1.0000
  Ba  Ba1       1.0  0.8155310355258155  0.40754043332313583  0.3920997336525986  1.0000
