data_image214
_chemical_formula_structural       BaOTiO
_chemical_formula_sum              "Ba1 O2 Ti1"
_cell_length_a       3.271900695779989
_cell_length_b       3.2672445639916377
_cell_length_c       6.528433322906494
_cell_angle_alpha    75.48137536905178
_cell_angle_beta     75.47126004536008
_cell_angle_gamma    59.95989591509908

_space_group_name_H-M_alt    "P 1"
_space_group_IT_number       1

loop_
  _space_group_symop_operation_xyz
  'x, y, z'

loop_
  _atom_site_type_symbol
  _atom_site_label
  _atom_site_symmetry_multiplicity
  _atom_site_fract_x
  _atom_site_fract_y
  _atom_site_fract_z
  _atom_site_occupancy
  Ba  Ba1       1.0  0.748215608829562  0.66022943536341  0.4683330829118432  1.0000
  O   O1        1.0  0.3061013525165632  0.21785093383463694  0.7969847795737506  1.0000
  Ti  Ti1       1.0  0.9190008325731942  0.8308264321051869  0.958702175809939  1.0000
  O   O2        1.0  0.5301274460770528  0.4422683885186944  0.12477494261982033  1.0000
