data_image583
_chemical_formula_structural       BaOTiO
_chemical_formula_sum              "Ba1 O2 Ti1"
_cell_length_a       3.271847308525147
_cell_length_b       3.2722488645478576
_cell_length_c       7.073849678039552
_cell_angle_alpha    76.38396607140193
_cell_angle_beta     76.44051328386504
_cell_angle_gamma    59.788655714330936

_space_group_name_H-M_alt    "P 1"
_space_group_IT_number       1

loop_
  _space_group_symop_operation_xyz
  'x, y, z'

loop_
  _atom_site_type_symbol
  _atom_site_label
  _atom_site_symmetry_multiplicity
  _atom_site_fract_x
  _atom_site_fract_y
  _atom_site_fract_z
  _atom_site_occupancy
  Ba  Ba1       1.0  0.2281035455477766  0.7244412416364636  0.10892973414717091  1.0000
  O   O1        1.0  0.10468078349623698  0.6020638880285722  0.4800216764804225  1.0000
  Ti  Ti1       1.0  0.7281395195961982  0.22509524325527247  0.6088329143847419  1.0000
  O   O2        1.0  0.3515694713480704  0.8479551617025758  0.7376108123783062  1.0000
