data_image10
_chemical_formula_structural       TiBaO4
_chemical_formula_sum              "Ti1 Ba1 O4"
_cell_length_a       3.8767868570523167
_cell_length_b       3.891127187256987
_cell_length_c       5.449368000030518
_cell_angle_alpha    90.05787469655344
_cell_angle_beta     90.06850247056086
_cell_angle_gamma    89.98719589984225

_space_group_name_H-M_alt    "P 1"
_space_group_IT_number       1

loop_
  _space_group_symop_operation_xyz
  'x, y, z'

loop_
  _atom_site_type_symbol
  _atom_site_label
  _atom_site_symmetry_multiplicity
  _atom_site_fract_x
  _atom_site_fract_y
  _atom_site_fract_z
  _atom_site_occupancy
  Ti  Ti1       1.0  0.6772407428142496  0.0935564395764857  0.3211516965157226  1.0000
  Ba  Ba1       1.0  0.15583678431210649  0.5681549035293612  0.9086964849196181  1.0000
  O   O1        1.0  0.14475669000930166  0.1094255651421535  0.27596639265512896  1.0000
  O   O2        1.0  0.6533343435791884  0.24442609600879822  0.6631892472366663  1.0000
  O   O3        1.0  0.6529820457095818  0.029542247443025447  0.884925834886674  1.0000
  O   O4        1.0  0.6463889849971844  0.6184678556706769  0.26997849062949386  1.0000
