data_image643
_chemical_formula_structural       Ba2Ti2BaO5
_chemical_formula_sum              "Ba3 Ti2 O5"
_cell_length_a       5.834974974031471
_cell_length_b       6.210184046061929
_cell_length_c       5.943612098693848
_cell_angle_alpha    116.43434365961738
_cell_angle_beta     83.95947223026246
_cell_angle_gamma    110.17487775521963

_space_group_name_H-M_alt    "P 1"
_space_group_IT_number       1

loop_
  _space_group_symop_operation_xyz
  'x, y, z'

loop_
  _atom_site_type_symbol
  _atom_site_label
  _atom_site_symmetry_multiplicity
  _atom_site_fract_x
  _atom_site_fract_y
  _atom_site_fract_z
  _atom_site_occupancy
  Ba  Ba1       1.0  0.31565087815381027  0.33315866405793926  0.4690398540277354  1.0000
  Ba  Ba2       1.0  0.9557768293985087  0.4019683855693192  0.02493740320050861  1.0000
  Ti  Ti1       1.0  0.35727123082853274  0.9986569142703406  0.8295078548494983  1.0000
  Ti  Ti2       1.0  0.9141583979188963  0.7364366930273559  0.6644636986241609  1.0000
  Ba  Ba3       1.0  0.6357104060616282  0.867543285542982  0.2469843836771766  1.0000
  O   O1        1.0  0.21467876469080305  0.7864619806944314  0.46941719753229716  1.0000
  O   O2        1.0  0.05677076887820971  0.9485770202599694  0.024565037119926948  1.0000
  O   O3        1.0  0.8218619926101918  0.3802355339614236  0.488243368350007  1.0000
  O   O4        1.0  0.6357245583729827  0.8675615011678878  0.7470050849241444  1.0000
  O   O5        1.0  0.4495195424212084  0.35486512265503956  0.005681182467374262  1.0000
