data_image159
_chemical_formula_structural       Ba2OTiO3
_chemical_formula_sum              "Ba2 O4 Ti1"
_cell_length_a       4.0417252959906556
_cell_length_b       4.044321082832866
_cell_length_c       7.345591068267822
_cell_angle_alpha    105.86923012608386
_cell_angle_beta     105.90695244150197
_cell_angle_gamma    89.985747912925

_space_group_name_H-M_alt    "P 1"
_space_group_IT_number       1

loop_
  _space_group_symop_operation_xyz
  'x, y, z'

loop_
  _atom_site_type_symbol
  _atom_site_label
  _atom_site_symmetry_multiplicity
  _atom_site_fract_x
  _atom_site_fract_y
  _atom_site_fract_z
  _atom_site_occupancy
  Ba  Ba1       1.0  0.19099013648876742  0.46778048712308806  0.49760487008697624  1.0000
  Ba  Ba2       1.0  0.4777303786027419  0.7542230192447807  0.07157477522254337  1.0000
  O   O1        1.0  0.3343786518113498  0.11121541787622459  0.7845369336590785  1.0000
  Ti  Ti1       1.0  0.8343511060927926  0.1107975000715136  0.7844820699293119  1.0000
  O   O2        1.0  0.8344071152463434  0.6112865830682734  0.7845526491717155  1.0000
  O   O3        1.0  0.6873277238948593  0.9640691286920249  0.4902572348014166  1.0000
  O   O4        1.0  0.98138940257245  0.25815135766689623  0.07872920297004297  1.0000
