data_image1040
_chemical_formula_structural       TiBaTi2Ba2TiO8BaO4
_chemical_formula_sum              "Ti4 Ba4 O12"
_cell_length_a       4.048805722062146
_cell_length_b       7.627893078927294
_cell_length_c       11.119342803955078
_cell_angle_alpha    89.96977208578832
_cell_angle_beta     89.99630737230225
_cell_angle_gamma    89.97913627705583

_space_group_name_H-M_alt    "P 1"
_space_group_IT_number       1

loop_
  _space_group_symop_operation_xyz
  'x, y, z'

loop_
  _atom_site_type_symbol
  _atom_site_label
  _atom_site_symmetry_multiplicity
  _atom_site_fract_x
  _atom_site_fract_y
  _atom_site_fract_z
  _atom_site_occupancy
  Ti  Ti1       1.0  0.6739092803426775  0.6924976546122998  0.7216525195531767  1.0000
  Ba  Ba1       1.0  0.6737531335906524  0.9683758994138844  0.13314537679986665  1.0000
  Ti  Ti2       1.0  0.6736759702928573  0.4409399565686525  0.264496399393885  1.0000
  Ti  Ti3       1.0  0.17379358648240698  0.9409257866291522  0.8414709547954877  1.0000
  Ba  Ba2       1.0  0.6736957365134019  0.24008635543711976  0.6623139603159338  1.0000
  Ba  Ba3       1.0  0.17371534886953305  0.7399624579006282  0.443573728787893  1.0000
  Ti  Ti4       1.0  0.17368848016308858  0.19244639284825354  0.3843533014831074  1.0000
  O   O1        1.0  0.6739139983766624  0.5114091933047492  0.8218805698384671  1.0000
  O   O2        1.0  0.6737167066639566  0.24740853670777982  0.383276647741593  1.0000
  O   O3        1.0  0.6735658275592712  0.676166522888729  0.27523343670465455  1.0000
  O   O4        1.0  0.17378022401342752  0.10727612686087408  0.5353276557560952  1.0000
  O   O5        1.0  0.6738658042689181  0.6074120461062678  0.5707029912957073  1.0000
  O   O6        1.0  0.17382731338877808  0.8545332660396119  0.9920494727107131  1.0000
  O   O7        1.0  0.6737952233565448  0.35458737321384365  0.11396146225242898  1.0000
  O   O8        1.0  0.17372654183491792  0.01149143970292685  0.28411961900208776  1.0000
  Ba  Ba4       1.0  0.173846820460721  0.46833730882065966  0.9727679283213494  1.0000
  O   O9        1.0  0.6738115178689511  0.9249515530421282  0.8019275845480256  1.0000
  O   O10       1.0  0.17373895658917562  0.17616456643684325  0.8306912756229253  1.0000
  O   O11       1.0  0.17387633376231262  0.7473258043335094  0.7228529795418226  1.0000
  O   O12       1.0  0.1736541447141016  0.42495931512201  0.30402511143449235  1.0000
