data_image530
_chemical_formula_structural       TiBa2OTiOTiO5BaO
_chemical_formula_sum              "Ti3 Ba3 O8"
_cell_length_a       4.014550248855808
_cell_length_b       4.016639234570244
_cell_length_c       12.38413715362549
_cell_angle_alpha    90.00177835355571
_cell_angle_beta     90.00806895769634
_cell_angle_gamma    90.00819190106628

_space_group_name_H-M_alt    "P 1"
_space_group_IT_number       1

loop_
  _space_group_symop_operation_xyz
  'x, y, z'

loop_
  _atom_site_type_symbol
  _atom_site_label
  _atom_site_symmetry_multiplicity
  _atom_site_fract_x
  _atom_site_fract_y
  _atom_site_fract_z
  _atom_site_occupancy
  Ti  Ti1       1.0  0.4031979535436345  0.6158023476610115  0.6465327945609061  1.0000
  Ba  Ba1       1.0  0.90364403641579  0.11625696448597896  0.12810505966500865  1.0000
  Ba  Ba2       1.0  0.903423990089526  0.11592168846134249  0.46620791690776997  1.0000
  O   O1        1.0  0.40327537510037226  0.6159623498083194  0.7980907552052122  1.0000
  Ti  Ti2       1.0  0.4034968819246617  0.6162056616165299  0.9663215651025086  1.0000
  O   O2        1.0  0.9034756374053508  0.6162199873320986  0.9662521445212702  1.0000
  Ti  Ti3       1.0  0.4036743052160345  0.6161912643906027  0.28591646530723414  1.0000
  O   O3        1.0  0.40367527168014367  0.1162056045609623  0.30877531792263635  1.0000
  O   O4        1.0  0.9037175995813553  0.6161622618048898  0.30883071855036526  1.0000
  O   O5        1.0  0.40317146186768626  0.11575074410625491  0.6235625826655635  1.0000
  O   O6        1.0  0.9031461507345471  0.6157373135471096  0.6234527082964474  1.0000
  O   O7        1.0  0.40366232921575024  0.6162673715492729  0.13430768135966784  1.0000
  Ba  Ba3       1.0  0.9032881296689662  0.11598462220415058  0.8045763628971233  1.0000
  O   O8        1.0  0.4034847795718173  0.11618392850364909  0.9662593447478867  1.0000
