data_image826
_chemical_formula_structural       Ba2O3Ti
_chemical_formula_sum              "Ba2 O3 Ti1"
_cell_length_a       3.9562584120214863
_cell_length_b       4.034938221704802
_cell_length_c       7.386963367462158
_cell_angle_alpha    105.9401963174893
_cell_angle_beta     105.64358675386958
_cell_angle_gamma    90.11113649193418

_space_group_name_H-M_alt    "P 1"
_space_group_IT_number       1

loop_
  _space_group_symop_operation_xyz
  'x, y, z'

loop_
  _atom_site_type_symbol
  _atom_site_label
  _atom_site_symmetry_multiplicity
  _atom_site_fract_x
  _atom_site_fract_y
  _atom_site_fract_z
  _atom_site_occupancy
  Ba  Ba1       1.0  0.9366357838813226  0.8319129469394313  0.8147330980740172  1.0000
  Ba  Ba2       1.0  0.6353082715820296  0.5306411812210583  0.21317531058169337  1.0000
  O   O1        1.0  0.42973995672622084  0.32542408161775654  0.8010919389514989  1.0000
  O   O2        1.0  0.2860006292987794  0.6812923263142776  0.514013141627596  1.0000
  O   O3        1.0  0.1423002330770818  0.037154715737547105  0.2269535044365516  1.0000
  Ti  Ti1       1.0  0.28597072392581785  0.1812711913913794  0.5139455158133  1.0000
