data_image123
_chemical_formula_structural       O2BaOTiO2TiBaOBaO
_chemical_formula_sum              "O7 Ba3 Ti2"
_cell_length_a       3.9899834453560303
_cell_length_b       3.989925315740797
_cell_length_c       13.126566886901855
_cell_angle_alpha    90.25727525626624
_cell_angle_beta     90.31099468256103
_cell_angle_gamma    89.95109152122136

_space_group_name_H-M_alt    "P 1"
_space_group_IT_number       1

loop_
  _space_group_symop_operation_xyz
  'x, y, z'

loop_
  _atom_site_type_symbol
  _atom_site_label
  _atom_site_symmetry_multiplicity
  _atom_site_fract_x
  _atom_site_fract_y
  _atom_site_fract_z
  _atom_site_occupancy
  O   O1        1.0  0.431943233262257  0.7266973814106034  0.505096482431457  1.0000
  O   O2        1.0  0.9293381842818338  0.7244616471760573  0.35702949431849224  1.0000
  Ba  Ba1       1.0  0.926314243699731  0.22190277220667537  0.19863195055564184  1.0000
  O   O3        1.0  0.42645466474850025  0.7220961143877941  0.19871919540623756  1.0000
  Ti  Ti1       1.0  0.4289334575507276  0.7235047902135526  0.3573648141377199  1.0000
  O   O4        1.0  0.4210428893881667  0.7175687934450509  0.8922098073552687  1.0000
  O   O5        1.0  0.9237234175485226  0.7197791041505623  0.040347319859589746  1.0000
  Ti  Ti2       1.0  0.4234401909470914  0.7199492693710536  0.03998873716489391  1.0000
  Ba  Ba2       1.0  0.9208826766384065  0.21771662732550282  0.8918107050886769  1.0000
  O   O6        1.0  0.42368041649135435  0.21972142313857942  0.04034002125154744  1.0000
  Ba  Ba3       1.0  0.9318350977279507  0.22618481320361472  0.5055732505480122  1.0000
  O   O7        1.0  0.4292440817169054  0.22470401156219108  0.357001516618112  1.0000
