data_image215
_chemical_formula_structural       TiBaOTiBaTiO6
_chemical_formula_sum              "Ti3 Ba2 O7"
_cell_length_a       3.906875637158651
_cell_length_b       5.96813002364094
_cell_length_c       8.456772804260254
_cell_angle_alpha    109.36835006827025
_cell_angle_beta     103.17715851345008
_cell_angle_gamma    89.94941822071543

_space_group_name_H-M_alt    "P 1"
_space_group_IT_number       1

loop_
  _space_group_symop_operation_xyz
  'x, y, z'

loop_
  _atom_site_type_symbol
  _atom_site_label
  _atom_site_symmetry_multiplicity
  _atom_site_fract_x
  _atom_site_fract_y
  _atom_site_fract_z
  _atom_site_occupancy
  Ti  Ti1       1.0  0.03671718892528461  0.8133318931832939  0.9639045527062059  1.0000
  Ba  Ba1       1.0  0.7130426011429287  0.9777323979573865  0.31895147198294116  1.0000
  O   O1        1.0  0.7293016980773314  0.4612609945799724  0.350211675304391  1.0000
  Ti  Ti2       1.0  0.2041897191075763  0.46612560651451257  0.29978652496124913  1.0000
  Ba  Ba2       1.0  0.49910792259882103  0.2856637776421212  0.8906475001223623  1.0000
  Ti  Ti3       1.0  0.8578999913040684  0.6649107463139534  0.6080311432843436  1.0000
  O   O2        1.0  0.542881939131043  0.8059252836953694  0.9764624781128561  1.0000
  O   O3        1.0  0.9421310563010308  0.9694692496914766  0.775756060680577  1.0000
  O   O4        1.0  0.1363860100385963  0.14012027720449483  0.16366100472635914  1.0000
  O   O5        1.0  0.13022775446856455  0.6354509117778778  0.15135852702545774  1.0000
  O   O6        1.0  0.3242733160395834  0.695427032936492  0.5407213578388403  1.0000
  O   O7        1.0  0.9277320739720116  0.48379674695213853  0.7455095273224355  1.0000
