data_image135
_chemical_formula_structural       OBaOTiO2BaO4Ti
_chemical_formula_sum              "O8 Ba2 Ti2"
_cell_length_a       3.9862592456563997
_cell_length_b       6.240120967948292
_cell_length_c       7.343928337097167
_cell_angle_alpha    89.738624813387
_cell_angle_beta     105.2502974830362
_cell_angle_gamma    89.97958024110362

_space_group_name_H-M_alt    "P 1"
_space_group_IT_number       1

loop_
  _space_group_symop_operation_xyz
  'x, y, z'

loop_
  _atom_site_type_symbol
  _atom_site_label
  _atom_site_symmetry_multiplicity
  _atom_site_fract_x
  _atom_site_fract_y
  _atom_site_fract_z
  _atom_site_occupancy
  O   O1        1.0  0.31572610089435554  0.8673238707058937  0.3657663285852693  1.0000
  Ba  Ba1       1.0  0.39132956921386897  0.37381623055282337  0.5259716804431975  1.0000
  O   O2        1.0  0.575823609003692  0.16066482765445272  0.8694787971905902  1.0000
  Ti  Ti1       1.0  0.6761537565173776  0.3707836655917165  0.04552922595765408  1.0000
  O   O3        1.0  0.9202619378131078  0.09131085496134522  0.5819291923538068  1.0000
  O   O4        1.0  0.7282686718565655  0.6641628595930528  0.18203353182059695  1.0000
  Ba  Ba2       1.0  0.10031655480813276  0.8739334863268112  0.9178632789632859  1.0000
  O   O5        1.0  0.7633586189100574  0.16410076157180123  0.2619906834027831  1.0000
  O   O6        1.0  0.5709803140029261  0.5930597528276904  0.8606353559589607  1.0000
  O   O7        1.0  0.9161206519166245  0.6591442322994179  0.5752019458059519  1.0000
  O   O8        1.0  0.17561286775150442  0.36908112210222593  0.07729991358088135  1.0000
  Ti  Ti2       1.0  0.8151461452295466  0.8699017632112808  0.3978481407219011  1.0000
