data_image327
_chemical_formula_structural       TiBaOTiO4BaO
_chemical_formula_sum              "Ti2 Ba2 O6"
_cell_length_a       5.647139549021944
_cell_length_b       5.665997224435789
_cell_length_c       5.64797067642212
_cell_angle_alpha    61.011803817197304
_cell_angle_beta     61.19790979881156
_cell_angle_gamma    60.915717673248736

_space_group_name_H-M_alt    "P 1"
_space_group_IT_number       1

loop_
  _space_group_symop_operation_xyz
  'x, y, z'

loop_
  _atom_site_type_symbol
  _atom_site_label
  _atom_site_symmetry_multiplicity
  _atom_site_fract_x
  _atom_site_fract_y
  _atom_site_fract_z
  _atom_site_occupancy
  Ti  Ti1       1.0  0.6187153290268131  0.2732839394125852  0.8638750014609058  1.0000
  Ba  Ba1       1.0  0.37433465766208507  0.030817843486646367  0.6188945271780725  1.0000
  O   O1        1.0  0.3735512307734507  0.5428703019287232  0.12790475319278596  1.0000
  Ti  Ti2       1.0  0.11869117637744085  0.7733131649792464  0.36385149409588313  1.0000
  O   O2        1.0  0.873790617488215  0.04261342557178218  0.6281641540599243  1.0000
  O   O3        1.0  0.38321269353916204  0.042781398410932675  0.11836995899110493  1.0000
  O   O4        1.0  0.38190615143748297  0.534787742095865  0.6272748575591469  1.0000
  O   O5        1.0  0.8819202808921388  0.035346161691569386  0.12723182874249542  1.0000
  Ba  Ba2       1.0  0.874314146561328  0.5308473105094683  0.11886795823644124  1.0000
  O   O6        1.0  0.8829260072257186  0.5430679226011643  0.6180982465181951  1.0000
