data_image631
_chemical_formula_structural       BaO2BaTi2O2
_chemical_formula_sum              "Ba2 O4 Ti2"
_cell_length_a       3.815822090213254
_cell_length_b       3.7769753365336807
_cell_length_c       10.867653846740723
_cell_angle_alpha    90.02702273251427
_cell_angle_beta     90.17523783508518
_cell_angle_gamma    90.02829998134922

_space_group_name_H-M_alt    "P 1"
_space_group_IT_number       1

loop_
  _space_group_symop_operation_xyz
  'x, y, z'

loop_
  _atom_site_type_symbol
  _atom_site_label
  _atom_site_symmetry_multiplicity
  _atom_site_fract_x
  _atom_site_fract_y
  _atom_site_fract_z
  _atom_site_occupancy
  Ba  Ba1       1.0  0.06535530123430108  0.189588011676718  0.6139323458596845  1.0000
  O   O1        1.0  0.0631645923901992  0.6895512232209411  0.3089805477106472  1.0000
  O   O2        1.0  0.5633163920764994  0.18921574809623612  0.30410108462834184  1.0000
  Ba  Ba2       1.0  0.5610545377308853  0.6895539430662695  0.9992643160186817  1.0000
  Ti  Ti1       1.0  0.5637121584925985  0.6892824761486905  0.37304452041984165  1.0000
  Ti  Ti2       1.0  0.06277228808285018  0.1894959490005038  0.240111711622344  1.0000
  O   O3        1.0  0.5649199325126945  0.6894736493304974  0.545946657077802  1.0000
  O   O4        1.0  0.0615276479096493  0.18968134099947226  0.06720026138499846  1.0000
