data_image867
_chemical_formula_structural       BaOTiBaO2BaOTiO3
_chemical_formula_sum              "Ba3 O7 Ti2"
_cell_length_a       4.074681120478586
_cell_length_b       4.070930379030909
_cell_length_c       11.11559772491455
_cell_angle_alpha    100.47126951457942
_cell_angle_beta     100.53214776564005
_cell_angle_gamma    90.20055053355377

_space_group_name_H-M_alt    "P 1"
_space_group_IT_number       1

loop_
  _space_group_symop_operation_xyz
  'x, y, z'

loop_
  _atom_site_type_symbol
  _atom_site_label
  _atom_site_symmetry_multiplicity
  _atom_site_fract_x
  _atom_site_fract_y
  _atom_site_fract_z
  _atom_site_occupancy
  Ba  Ba1       1.0  0.1517035924919768  0.7644689666826175  0.3030166797161822  1.0000
  O   O1        1.0  0.5512964140200144  0.6984388689381208  0.12583208759590178  1.0000
  Ti  Ti1       1.0  0.5774516696374522  0.16269214367538024  0.12655363056674437  1.0000
  Ba  Ba2       1.0  0.7853349262050766  0.3993647320213768  0.5712392164517561  1.0000
  O   O2        1.0  0.04009391386615768  0.18753314849803326  0.1258475156458122  1.0000
  O   O3        1.0  0.4520674998672769  0.0982383296307291  0.9371670740692678  1.0000
  Ba  Ba3       1.0  0.9692168847066815  0.5813385502685189  0.9371636614942164  1.0000
  O   O4        1.0  0.2679518505886776  0.911015038613011  0.5654827146927041  1.0000
  Ti  Ti2       1.0  0.38764032835224216  0.9737694871935996  0.7478093742881926  1.0000
  O   O5        1.0  0.36212485090344526  0.5102329842382118  0.7484165718396222  1.0000
  O   O6        1.0  0.6401440669659626  0.2815107783456238  0.3087864785040529  1.0000
  O   O7        1.0  0.8510847109939031  0.9993366449972408  0.748394357872516  1.0000
