data_image268
_chemical_formula_structural       BaOTiBaO3TiO2
_chemical_formula_sum              "Ba2 O6 Ti2"
_cell_length_a       5.564339677181554
_cell_length_b       5.56404118523167
_cell_length_c       6.04557466506958
_cell_angle_alpha    117.28441538471047
_cell_angle_beta     117.29390735505518
_cell_angle_gamma    89.99061814066013

_space_group_name_H-M_alt    "P 1"
_space_group_IT_number       1

loop_
  _space_group_symop_operation_xyz
  'x, y, z'

loop_
  _atom_site_type_symbol
  _atom_site_label
  _atom_site_symmetry_multiplicity
  _atom_site_fract_x
  _atom_site_fract_y
  _atom_site_fract_z
  _atom_site_occupancy
  Ba  Ba1       1.0  0.40968603362161554  0.10799486063270955  0.5593117759750018  1.0000
  O   O1        1.0  0.9618520536031299  0.1603709897030386  0.6630726387345804  1.0000
  Ti  Ti1       1.0  0.6559320912410095  0.854410526699714  0.05271733085195164  1.0000
  Ba  Ba2       1.0  0.9098136134591588  0.6080374340295622  0.5593872286824579  1.0000
  O   O2        1.0  0.9431732895274902  0.6411067603007365  0.12442365050290027  1.0000
  O   O3        1.0  0.4429483414071796  0.14083550783121843  0.12419488382684687  1.0000
  O   O4        1.0  0.46232328546049756  0.6604742948785096  0.6631390933467278  1.0000
  Ti  Ti2       1.0  0.15585237673680996  0.3543853821174158  0.05267844135074866  1.0000
  O   O5        1.0  0.9430969164930775  0.14109747496771613  0.12437094649249032  1.0000
  O   O6        1.0  0.4430029907598155  0.640817850287021  0.12409888806696456  1.0000
