data_image889
_chemical_formula_structural       BaO2Ti2OBaO4
_chemical_formula_sum              "Ba2 O7 Ti2"
_cell_length_a       3.9422625094075565
_cell_length_b       3.9422466146515065
_cell_length_c       11.18755054473877
_cell_angle_alpha    100.14816081546918
_cell_angle_beta     100.13839422913206
_cell_angle_gamma    90.03560135238622

_space_group_name_H-M_alt    "P 1"
_space_group_IT_number       1

loop_
  _space_group_symop_operation_xyz
  'x, y, z'

loop_
  _atom_site_type_symbol
  _atom_site_label
  _atom_site_symmetry_multiplicity
  _atom_site_fract_x
  _atom_site_fract_y
  _atom_site_fract_z
  _atom_site_occupancy
  Ba  Ba1       1.0  0.32272582801049016  0.3655480491160718  0.653642043558765  1.0000
  O   O1        1.0  0.45045971768824833  0.49355370989748526  0.9095670549277094  1.0000
  O   O2        1.0  0.23817521455803284  0.7809026607439492  0.4842215597911055  1.0000
  Ti  Ti1       1.0  0.7252381687411277  0.7678692553679926  0.45877203444207015  1.0000
  Ti  Ti2       1.0  0.5567736485246351  0.600375541221446  0.12289539581997799  1.0000
  O   O3        1.0  0.7380915931294281  0.2810099793908613  0.4841217971270299  1.0000
  Ba  Ba2       1.0  0.9594782200981429  0.0026845460141743825  0.9276762307459473  1.0000
  O   O4        1.0  0.8313493415132143  0.8742969426269892  0.6708400384170942  1.0000
  O   O5        1.0  0.044319748359701934  0.587296681070109  0.09695245732101371  1.0000
  O   O6        1.0  0.54414895883923  0.08724686792508084  0.09692942546668815  1.0000
  O   O7        1.0  0.6412204566151761  0.6841881138886019  0.2906431440468195  1.0000
