data_image512
_chemical_formula_structural       BaOTiO3
_chemical_formula_sum              "Ba1 O4 Ti1"
_cell_length_a       4.141921103642474
_cell_length_b       4.1800460074515176
_cell_length_c       6.446230888366699
_cell_angle_alpha    72.51890335913438
_cell_angle_beta     72.42977723455552
_cell_angle_gamma    60.32443000318818

_space_group_name_H-M_alt    "P 1"
_space_group_IT_number       1

loop_
  _space_group_symop_operation_xyz
  'x, y, z'

loop_
  _atom_site_type_symbol
  _atom_site_label
  _atom_site_symmetry_multiplicity
  _atom_site_fract_x
  _atom_site_fract_y
  _atom_site_fract_z
  _atom_site_occupancy
  Ba  Ba1       1.0  0.6605870102526425  0.22401433274676602  0.40080004370900146  1.0000
  O   O1        1.0  0.689937091896214  0.2542377600006184  0.906022086808064  1.0000
  Ti  Ti1       1.0  0.22888288272832827  0.7981023893525802  0.9011659286575773  1.0000
  O   O2        1.0  0.4996609753500245  0.054068153642320156  0.890838359285431  1.0000
  O   O3        1.0  0.24706377006682206  0.8072928719743714  0.6163856031641308  1.0000
  O   O4        1.0  0.05652315984532364  0.6210631321936856  0.18196811247087694  1.0000
