data_image511
_chemical_formula_structural       TiBaOBaO5Ti
_chemical_formula_sum              "Ti2 Ba2 O6"
_cell_length_a       4.276575903738969
_cell_length_b       5.648150470518509
_cell_length_c       5.644120693206786
_cell_angle_alpha    89.95258733395453
_cell_angle_beta     89.96462212441578
_cell_angle_gamma    89.94948642553716

_space_group_name_H-M_alt    "P 1"
_space_group_IT_number       1

loop_
  _space_group_symop_operation_xyz
  'x, y, z'

loop_
  _atom_site_type_symbol
  _atom_site_label
  _atom_site_symmetry_multiplicity
  _atom_site_fract_x
  _atom_site_fract_y
  _atom_site_fract_z
  _atom_site_occupancy
  Ti  Ti1       1.0  0.32024632872714265  0.22967120319486792  0.2696718268471773  1.0000
  Ba  Ba1       1.0  0.8379159577184285  0.23003303702488206  0.7694540168244857  1.0000
  O   O1        1.0  0.3716488859486445  0.4803909062636771  0.5193421219779224  1.0000
  Ba  Ba2       1.0  0.8378722460602046  0.7299791242038376  0.26948367967353354  1.0000
  O   O2        1.0  0.37188427476955355  0.9804855866666952  0.5192936816157825  1.0000
  O   O3        1.0  0.3715305437295629  0.9803080730521773  0.019398676694121545  1.0000
  O   O4        1.0  0.8959385020648923  0.23021933425146204  0.2694811345454123  1.0000
  O   O5        1.0  0.8959570760476365  0.7302401234195721  0.7694750326108225  1.0000
  O   O6        1.0  0.37188733451806955  0.4804123653429189  0.01922103797856485  1.0000
  Ti  Ti2       1.0  0.32026022603873083  0.729694718187333  0.769667665003478  1.0000
