data_image811
_chemical_formula_structural       BaTi3OBaOBaO8
_chemical_formula_sum              "Ba3 Ti3 O10"
_cell_length_a       3.968304088384731
_cell_length_b       3.972174746474673
_cell_length_c       15.571668624877931
_cell_angle_alpha    97.23854089443913
_cell_angle_beta     97.23079614951077
_cell_angle_gamma    89.93830539794574

_space_group_name_H-M_alt    "P 1"
_space_group_IT_number       1

loop_
  _space_group_symop_operation_xyz
  'x, y, z'

loop_
  _atom_site_type_symbol
  _atom_site_label
  _atom_site_symmetry_multiplicity
  _atom_site_fract_x
  _atom_site_fract_y
  _atom_site_fract_z
  _atom_site_occupancy
  Ba  Ba1       1.0  0.8354185956522127  0.3760441170059219  0.9368527791835283  1.0000
  Ti  Ti1       1.0  0.26792029363093817  0.8086014751461474  0.8008071214698015  1.0000
  Ti  Ti2       1.0  0.12749996467064487  0.6680819865711419  0.5180760446231357  1.0000
  Ti  Ti3       1.0  0.9769128607911695  0.5175858864081656  0.21550153097312405  1.0000
  O   O1        1.0  0.19614943696325368  0.7366793524450141  0.6560418920953501  1.0000
  Ba  Ba2       1.0  0.6977820036109108  0.23830834105714951  0.6593413264909261  1.0000
  O   O2        1.0  0.7643805464602309  0.8048246626852489  0.7934706521227081  1.0000
  Ba  Ba3       1.0  0.5557444687755249  0.09635042949138002  0.37381076825570836  1.0000
  O   O3        1.0  0.6305782855809422  0.671159766257282  0.5239686240103271  1.0000
  O   O4        1.0  0.49174758700217436  0.5324501807187534  0.2451630180177838  1.0000
  O   O5        1.0  0.32746899329162366  0.8680216536845132  0.9210769920184184  1.0000
  O   O6        1.0  0.06791877838666396  0.6085098218035532  0.39783031859209544  1.0000
  O   O7        1.0  0.13062206209415816  0.1710981396023567  0.5239283300742025  1.0000
  O   O8        1.0  0.9214966562962204  0.4622399826380733  0.10443550594567265  1.0000
  O   O9        1.0  0.2643991968082573  0.3048857234032005  0.7935387454168445  1.0000
  O   O10       1.0  0.9918200669397513  0.03232405172625082  0.2450850762288179  1.0000
