data_image102
_chemical_formula_structural       BaOBaO3TiOTiO2BaO2Ti
_chemical_formula_sum              "Ba3 O9 Ti3"
_cell_length_a       3.9631316161724928
_cell_length_b       3.961167841070888
_cell_length_c       13.92244243621826
_cell_angle_alpha    89.92018490997557
_cell_angle_beta     89.98233280538452
_cell_angle_gamma    89.93873571006239

_space_group_name_H-M_alt    "P 1"
_space_group_IT_number       1

loop_
  _space_group_symop_operation_xyz
  'x, y, z'

loop_
  _atom_site_type_symbol
  _atom_site_label
  _atom_site_symmetry_multiplicity
  _atom_site_fract_x
  _atom_site_fract_y
  _atom_site_fract_z
  _atom_site_occupancy
  Ba  Ba1       1.0  0.9018056347387077  0.3659927344200583  0.43713570417694325  1.0000
  O   O1        1.0  0.39196593494229287  0.8724004613634337  0.14151738238511788  1.0000
  Ba  Ba2       1.0  0.880717412904394  0.36854879887783254  0.14356332007907702  1.0000
  O   O2        1.0  0.936816210934295  0.8844189947810518  0.5788835850724661  1.0000
  O   O3        1.0  0.40842808320075685  0.8722533631369795  0.4336280621998934  1.0000
  O   O4        1.0  0.902363538130463  0.8744582010961062  0.28401174598928286  1.0000
  Ti  Ti1       1.0  0.38158895889602823  0.8614454753662458  0.28146849261754003  1.0000
  O   O5        1.0  0.7948186554602285  0.8928485602213094  0.7946182113651926  1.0000
  Ti  Ti2       1.0  0.39341829328406597  0.8517573866045828  0.5707182605326715  1.0000
  O   O6        1.0  0.8162525186887634  0.37629727983087685  0.9384467292714315  1.0000
  O   O7        1.0  0.40057061940854466  0.37585027236650825  0.2840336955268653  1.0000
  Ba  Ba3       1.0  0.32576950444784947  0.871067063356025  0.9292581612556585  1.0000
  O   O8        1.0  0.4356014113039462  0.38940203007363466  0.5798504115672978  1.0000
  O   O9        1.0  0.29287001418862957  0.38857640872323423  0.7960124628342732  1.0000
  Ti  Ti3       1.0  0.8318965472049854  0.3603558746608319  0.8020873823211507  1.0000
