data_image884
_chemical_formula_structural       TiO2BaOBaTiO3
_chemical_formula_sum              "Ti2 O6 Ba2"
_cell_length_a       5.663948795358498
_cell_length_b       5.6649583910523
_cell_length_c       5.823725700378418
_cell_angle_alpha    118.95707612198757
_cell_angle_beta     119.08392450169208
_cell_angle_gamma    89.95799075178216

_space_group_name_H-M_alt    "P 1"
_space_group_IT_number       1

loop_
  _space_group_symop_operation_xyz
  'x, y, z'

loop_
  _atom_site_type_symbol
  _atom_site_label
  _atom_site_symmetry_multiplicity
  _atom_site_fract_x
  _atom_site_fract_y
  _atom_site_fract_z
  _atom_site_occupancy
  Ti  Ti1       1.0  0.3380217825343221  0.7955646927329757  0.1215572949363971  1.0000
  O   O1        1.0  0.11076611860716551  0.09327664247039208  0.1689832893816925  1.0000
  O   O2        1.0  0.1231231883680247  0.5967473627841776  0.6905513153912726  1.0000
  Ba  Ba1       1.0  0.5976583331109386  0.5655300359063219  0.6403406401208098  1.0000
  O   O3        1.0  0.6149740568064357  0.09315328229970626  0.16902956900450003  1.0000
  Ba  Ba2       1.0  0.09765902948724697  0.06553232816491857  0.6403413481660404  1.0000
  Ti  Ti2       1.0  0.8379951835118532  0.2955479751026778  0.12150872052913017  1.0000
  O   O4        1.0  0.11493387018470073  0.5931535590323119  0.16903032511477212  1.0000
  O   O5        1.0  0.6107486701551047  0.5932564864451326  0.16899139962674387  1.0000
  O   O6        1.0  0.6230959497686924  0.09671752586386036  0.6904936572120425  1.0000
