data_image716
_chemical_formula_structural       Ba2TiO6TiO2
_chemical_formula_sum              "Ba2 Ti2 O8"
_cell_length_a       3.986384958807544
_cell_length_b       6.252148845912514
_cell_length_c       7.316758155822754
_cell_angle_alpha    89.76059755919621
_cell_angle_beta     105.22723068259786
_cell_angle_gamma    89.89011840962351

_space_group_name_H-M_alt    "P 1"
_space_group_IT_number       1

loop_
  _space_group_symop_operation_xyz
  'x, y, z'

loop_
  _atom_site_type_symbol
  _atom_site_label
  _atom_site_symmetry_multiplicity
  _atom_site_fract_x
  _atom_site_fract_y
  _atom_site_fract_z
  _atom_site_occupancy
  Ba  Ba1       1.0  0.7061833143234253  0.6443456411361694  0.5267531871795654  1.0000
  Ba  Ba2       1.0  0.442102313041687  0.14253245294094086  0.9996424317359925  1.0000
  Ti  Ti1       1.0  0.1701631098985672  0.14323452115058896  0.45429193973541265  1.0000
  O   O1        1.0  0.8958759307861328  0.4180792272090912  0.9064156413078309  1.0000
  O   O2        1.0  0.07403593510389328  0.89383065700531  0.26289403438568115  1.0000
  O   O3        1.0  0.2529207468032837  0.9178826212882994  0.619838058948517  1.0000
  O   O4        1.0  0.49708664417266846  0.6431612372398376  0.10956789553165437  1.0000
  O   O5        1.0  0.6509982943534851  0.1428544223308563  0.4166690111160279  1.0000
  O   O6        1.0  0.8965224623680115  0.8693424463272095  0.9074664115905763  1.0000
  Ti  Ti2       1.0  0.9782992005348206  0.6431504487991333  0.07203840464353561  1.0000
  O   O7        1.0  0.2518535256385803  0.3686773180961609  0.6196145415306092  1.0000
  O   O8        1.0  0.07484428584575653  0.39379653334617615  0.2637518346309662  1.0000
