data_image602
_chemical_formula_structural       OBa2TiO2BaO2
_chemical_formula_sum              "O5 Ba3 Ti1"
_cell_length_a       3.9807937345452538
_cell_length_b       6.179029372902489
_cell_length_c       7.300000190734863
_cell_angle_alpha    115.0177487781747
_cell_angle_beta     105.83942245169114
_cell_angle_gamma    90.03498642173602

_space_group_name_H-M_alt    "P 1"
_space_group_IT_number       1

loop_
  _space_group_symop_operation_xyz
  'x, y, z'

loop_
  _atom_site_type_symbol
  _atom_site_label
  _atom_site_symmetry_multiplicity
  _atom_site_fract_x
  _atom_site_fract_y
  _atom_site_fract_z
  _atom_site_occupancy
  O   O1        1.0  0.16765199601650238  0.21154563128948212  0.47817540168762207  1.0000
  Ba  Ba1       1.0  0.551732063293457  0.8249047994613647  0.2468549609184265  1.0000
  Ba  Ba2       1.0  0.3405093252658844  0.11385191231966017  0.8241122961044312  1.0000
  Ti  Ti1       1.0  0.05205126106739044  0.3248845934867859  0.24692165851593018  1.0000
  O   O2        1.0  0.16744019091129303  0.6694197654724121  0.4781052768230438  1.0000
  O   O3        1.0  0.9363018274307251  0.43788787722587585  0.01557204406708479  1.0000
  Ba  Ba3       1.0  0.7634013891220093  0.5362256169319153  0.6695367693901062  1.0000
  O   O4        1.0  0.5517740845680237  0.32461321353912354  0.24692760407924652  1.0000
  O   O5        1.0  0.9364691376686096  0.9797038435935974  0.015908980742096963  1.0000
