data_image431
_chemical_formula_structural       BaTiO2
_chemical_formula_sum              "Ba1 Ti1 O2"
_cell_length_a       3.2872110575473372
_cell_length_b       3.2825579892217207
_cell_length_c       7.1244120597839355
_cell_angle_alpha    76.58467078166379
_cell_angle_beta     76.50785189648883
_cell_angle_gamma    59.82913857785723

_space_group_name_H-M_alt    "P 1"
_space_group_IT_number       1

loop_
  _space_group_symop_operation_xyz
  'x, y, z'

loop_
  _atom_site_type_symbol
  _atom_site_label
  _atom_site_symmetry_multiplicity
  _atom_site_fract_x
  _atom_site_fract_y
  _atom_site_fract_z
  _atom_site_occupancy
  Ba  Ba1       1.0  0.10267595201730727  0.3404780626296997  0.8705444931983948  1.0000
  Ti  Ti1       1.0  0.6031726598739623  0.8393548727035522  0.37302568554878235  1.0000
  O   O1        1.0  0.9806846380233764  0.21831104159355164  0.2380424290895462  1.0000
  O   O2        1.0  0.22346825897693637  0.4621227979660034  0.5062646865844727  1.0000
