data_image237
_chemical_formula_structural       BaTiOTi2BaO2TiO7BaO2
_chemical_formula_sum              "Ba3 Ti4 O12"
_cell_length_a       3.9473140764495986
_cell_length_b       3.9479569708949236
_cell_length_c       16.60753059387207
_cell_angle_alpha    90.08380892714324
_cell_angle_beta     90.10197040372591
_cell_angle_gamma    90.23847855219726

_space_group_name_H-M_alt    "P 1"
_space_group_IT_number       1

loop_
  _space_group_symop_operation_xyz
  'x, y, z'

loop_
  _atom_site_type_symbol
  _atom_site_label
  _atom_site_symmetry_multiplicity
  _atom_site_fract_x
  _atom_site_fract_y
  _atom_site_fract_z
  _atom_site_occupancy
  Ba  Ba1       1.0  0.6097759604454042  0.41553005576133734  0.03879477083683014  1.0000
  Ti  Ti1       1.0  0.11067621409893037  0.9151185154914857  0.6485776305198669  1.0000
  O   O1        1.0  0.11044753342866899  0.9151735901832582  0.7927888631820679  1.0000
  Ti  Ti2       1.0  0.1089500114321709  0.9150766134262086  0.16946393251419067  1.0000
  Ti  Ti3       1.0  0.11058002710342409  0.915238082408905  0.9083080887794495  1.0000
  Ba  Ba2       1.0  0.6114479899406434  0.41542029380798345  0.7823414206504822  1.0000
  O   O2        1.0  0.1097068637609482  0.4155158698558808  0.913104772567749  1.0000
  O   O3        1.0  0.6093097925186158  0.9148361682891847  0.4136846959590912  1.0000
  Ti  Ti4       1.0  0.10900721698999406  0.9151597023010254  0.43301212787628174  1.0000
  O   O4        1.0  0.6107411980628968  0.915230929851532  0.6649202108383179  1.0000
  O   O5        1.0  0.10993999987840654  0.915261209011078  0.5404413938522339  1.0000
  O   O6        1.0  0.10935733467340471  0.9150215983390808  0.28167811036109924  1.0000
  O   O7        1.0  0.6094391345977784  0.9148749113082886  0.16308246552944183  1.0000
  O   O8        1.0  0.11033906042575838  0.4152815341949463  0.6641502380371094  1.0000
  O   O9        1.0  0.6090130209922792  0.9152285456657411  0.9124994277954102  1.0000
  O   O10       1.0  0.10909648984670642  0.9151475429534913  0.03624696657061577  1.0000
  Ba  Ba3       1.0  0.6084578037261964  0.4146744906902313  0.29766353964805603  1.0000
  O   O11       1.0  0.10899253189563753  0.4148074090480805  0.41505712270736694  1.0000
  O   O12       1.0  0.10965639352798463  0.41466736793518066  0.1627412736415863  1.0000
