data_image185
_chemical_formula_structural       TiBa2O4BaOTiO2
_chemical_formula_sum              "Ti2 Ba3 O7"
_cell_length_a       3.996496964214019
_cell_length_b       3.9977844010594303
_cell_length_c       13.604243278503418
_cell_angle_alpha    88.96379445291318
_cell_angle_beta     88.91594895638688
_cell_angle_gamma    89.99843839155481

_space_group_name_H-M_alt    "P 1"
_space_group_IT_number       1

loop_
  _space_group_symop_operation_xyz
  'x, y, z'

loop_
  _atom_site_type_symbol
  _atom_site_label
  _atom_site_symmetry_multiplicity
  _atom_site_fract_x
  _atom_site_fract_y
  _atom_site_fract_z
  _atom_site_occupancy
  Ti  Ti1       1.0  0.0034256349317729473  0.9863340258598328  0.6588547825813295  1.0000
  Ba  Ba1       1.0  0.5132293701171875  0.49526739120483393  0.5044680833816528  1.0000
  Ba  Ba2       1.0  0.5310837030410767  0.5115497708320617  0.20476998388767245  1.0000
  O   O1        1.0  0.01354626752436161  0.9956136941909789  0.503131091594696  1.0000
  O   O2        1.0  0.5223613381385803  0.004092514049261808  0.35030981898307806  1.0000
  O   O3        1.0  0.021817849949002266  0.5035306811332702  0.3501956760883332  1.0000
  O   O4        1.0  0.9944680333137513  0.9775465130805968  0.8054600954055787  1.0000
  Ba  Ba3       1.0  0.4931601285934449  0.4765899181365967  0.8027914166450502  1.0000
  O   O5        1.0  0.5042616724967957  0.9868050813674926  0.6569220423698426  1.0000
  Ti  Ti2       1.0  0.02166755311191082  0.0044314004480838776  0.34914946556091314  1.0000
  O   O6        1.0  0.004180308431386948  0.4872531592845916  0.6570183634757997  1.0000
  O   O7        1.0  0.03213083744049072  0.013021582737565039  0.2061005085706711  1.0000
