data_image52
_chemical_formula_structural       Ba3OBaTiO5TiOTiO2
_chemical_formula_sum              "Ba4 O9 Ti3"
_cell_length_a       6.404862332526175
_cell_length_b       7.843724237050537
_cell_length_c       7.40331506729126
_cell_angle_alpha    62.603223162859294
_cell_angle_beta     71.80506812882015
_cell_angle_gamma    82.0548116617975

_space_group_name_H-M_alt    "P 1"
_space_group_IT_number       1

loop_
  _space_group_symop_operation_xyz
  'x, y, z'

loop_
  _atom_site_type_symbol
  _atom_site_label
  _atom_site_symmetry_multiplicity
  _atom_site_fract_x
  _atom_site_fract_y
  _atom_site_fract_z
  _atom_site_occupancy
  Ba  Ba1       1.0  0.8508005142211913  0.2936686873435974  0.47313100099563604  1.0000
  Ba  Ba2       1.0  0.2903827130794525  0.07634064555168152  0.8789440393447876  1.0000
  Ba  Ba3       1.0  0.2411181181669235  0.583152711391449  0.8460911512374878  1.0000
  O   O1        1.0  0.6113215088844299  0.9637373685836792  0.6214005947113037  1.0000
  Ba  Ba4       1.0  0.7553364038467406  0.8518814444541931  0.30694618821144104  1.0000
  Ti  Ti1       1.0  0.38038653135299677  0.5730655789375305  0.2748289704322815  1.0000
  O   O2        1.0  0.5653928518295288  0.7841305732727052  0.07625672221183777  1.0000
  O   O3        1.0  0.019470946863293648  0.9398947954177856  0.750882625579834  1.0000
  O   O4        1.0  0.4504586458206176  0.5045644640922546  0.5225521326065063  1.0000
  O   O5        1.0  0.48015359044075007  0.3789574503898621  0.18871845304965973  1.0000
  O   O6        1.0  0.6505597233772278  0.21188804507255557  0.8869006037712097  1.0000
  Ti  Ti2       1.0  0.7332504391670226  0.35272324085235596  0.9851334095001222  1.0000
  O   O7        1.0  0.8392341136932372  0.6000239253044128  0.7608869671821594  1.0000
  Ti  Ti3       1.0  0.7642432451248168  0.8179182410240173  0.8114450573921204  1.0000
  O   O8        1.0  0.10352737456560133  0.6399121880531311  0.23866581916809085  1.0000
  O   O9        1.0  0.9564401507377623  0.23944912850856784  0.10603918135166168  1.0000
