data_image407
_chemical_formula_structural       BaTiO2
_chemical_formula_sum              "Ba1 Ti1 O2"
_cell_length_a       4.052880266839994
_cell_length_b       4.059592658189132
_cell_length_c       6.7143964767456055
_cell_angle_alpha    72.38043006973068
_cell_angle_beta     72.38616597762824
_cell_angle_gamma    60.12904331104814

_space_group_name_H-M_alt    "P 1"
_space_group_IT_number       1

loop_
  _space_group_symop_operation_xyz
  'x, y, z'

loop_
  _atom_site_type_symbol
  _atom_site_label
  _atom_site_symmetry_multiplicity
  _atom_site_fract_x
  _atom_site_fract_y
  _atom_site_fract_z
  _atom_site_occupancy
  Ba  Ba1       1.0  0.07343246787786491  0.7293181419372557  0.9862246513366698  1.0000
  Ti  Ti1       1.0  0.5707468390464784  0.22751237452030182  0.4864563345909118  1.0000
  O   O1        1.0  0.479322373867035  0.13565288484096527  0.7664093375205993  1.0000
  O   O2        1.0  0.6667374968528749  0.322468489408493  0.20622241497039792  1.0000
