data_image286
_chemical_formula_structural       TiOBaTi
_chemical_formula_sum              "Ti2 O1 Ba1"
_cell_length_a       3.485245610227755
_cell_length_b       3.9774741437379313
_cell_length_c       6.8178181648254395
_cell_angle_alpha    106.94164450780512
_cell_angle_beta     104.72061732547438
_cell_angle_gamma    90.03488409145292

_space_group_name_H-M_alt    "P 1"
_space_group_IT_number       1

loop_
  _space_group_symop_operation_xyz
  'x, y, z'

loop_
  _atom_site_type_symbol
  _atom_site_label
  _atom_site_symmetry_multiplicity
  _atom_site_fract_x
  _atom_site_fract_y
  _atom_site_fract_z
  _atom_site_occupancy
  Ti  Ti1       1.0  0.1044519692659378  0.25088539719581604  0.4581385552883149  1.0000
  O   O1        1.0  0.6921852827072144  0.3408285677433014  0.6367892026901246  1.0000
  Ba  Ba1       1.0  0.3844977915287018  0.5302120447158813  0.01833539828658104  1.0000
  Ti  Ti2       1.0  0.6754208207130432  0.8201854825019835  0.5988003015518188  1.0000
