data_image203
_chemical_formula_structural       OBaTi2Ba3OBaO7
_chemical_formula_sum              "O9 Ba5 Ti2"
_cell_length_a       3.8329944055293956
_cell_length_b       7.3027962156904955
_cell_length_c       11.449514389038086
_cell_angle_alpha    95.71776578509167
_cell_angle_beta     90.01769952553636
_cell_angle_gamma    105.26975666285267

_space_group_name_H-M_alt    "P 1"
_space_group_IT_number       1

loop_
  _space_group_symop_operation_xyz
  'x, y, z'

loop_
  _atom_site_type_symbol
  _atom_site_label
  _atom_site_symmetry_multiplicity
  _atom_site_fract_x
  _atom_site_fract_y
  _atom_site_fract_z
  _atom_site_occupancy
  O   O1        1.0  0.1366387903690338  0.18998025357723236  0.19205400347709656  1.0000
  Ba  Ba1       1.0  0.9542258977890016  0.8244481682777405  0.06134705990552902  1.0000
  Ti  Ti1       1.0  0.23937974870204928  0.3946242332458496  0.06996716558933258  1.0000
  Ti  Ti2       1.0  0.6508710980415345  0.21821089088916779  0.24790190160274506  1.0000
  Ba  Ba2       1.0  0.38326054811477667  0.6822283267974854  0.398373007774353  1.0000
  Ba  Ba3       1.0  0.3662593066692353  0.6480513215065002  0.7196971774101257  1.0000
  Ba  Ba4       1.0  0.12220342457294465  0.16092464327812195  0.5093078017234802  1.0000
  O   O2        1.0  0.944376289844513  0.8040852546691895  0.5543974041938782  1.0000
  Ba  Ba5       1.0  0.6252081990242004  0.16821937263011932  0.8313169479370117  1.0000
  O   O3        1.0  0.3590205013751984  0.6327992677688599  0.14468970894813538  1.0000
  O   O4        1.0  0.9843605160713197  0.8870172500610352  0.8504737019538879  1.0000
  O   O5        1.0  0.7006220817565919  0.31682693958282476  0.07459525763988496  1.0000
  O   O6        1.0  0.5518976449966431  0.019491467624902725  0.3315522074699402  1.0000
  O   O7        1.0  0.25227877497673035  0.42166006565093994  0.9148154258728027  1.0000
  O   O8        1.0  0.7470481991767886  0.41004654765129095  0.35672253370285034  1.0000
  O   O9        1.0  0.712885081768036  0.342182993888855  0.6489369869232178  1.0000
