data_image669
_chemical_formula_structural       TiBa2O2BaTiO2BaO2
_chemical_formula_sum              "Ti2 Ba4 O6"
_cell_length_a       5.9399580197826065
_cell_length_b       6.48669778626576
_cell_length_c       6.909671783447266
_cell_angle_alpha    74.01341877112134
_cell_angle_beta     70.5510987049289
_cell_angle_gamma    64.7446047430126

_space_group_name_H-M_alt    "P 1"
_space_group_IT_number       1

loop_
  _space_group_symop_operation_xyz
  'x, y, z'

loop_
  _atom_site_type_symbol
  _atom_site_label
  _atom_site_symmetry_multiplicity
  _atom_site_fract_x
  _atom_site_fract_y
  _atom_site_fract_z
  _atom_site_occupancy
  Ti  Ti1       1.0  0.7670133113861084  0.12159009277820587  0.16841435432434082  1.0000
  Ba  Ba1       1.0  0.03483070805668831  0.0016245236620306967  0.673012912273407  1.0000
  Ba  Ba2       1.0  0.46088251471519476  0.7467138171195984  0.1363322138786316  1.0000
  O   O1        1.0  0.4483299255371094  0.06706859171390533  0.33722105622291565  1.0000
  O   O2        1.0  0.7809351682662964  0.31449735164642334  0.35159096121788025  1.0000
  Ba  Ba3       1.0  0.7678942680358887  0.6356145143508911  0.5520580410957336  1.0000
  Ti  Ti2       1.0  0.4624943137168884  0.25976622104644775  0.5197219252586365  1.0000
  O   O3        1.0  0.48610302805900574  0.023659151047468185  0.7628217339515686  1.0000
  O   O4        1.0  0.9768358469009399  0.8208728432655334  0.0981472060084343  1.0000
  Ba  Ba4       1.0  0.19427959620952606  0.3803571164608001  0.015499094501137732  1.0000
  O   O5        1.0  0.7431147694587708  0.3581193685531616  0.925511360168457  1.0000
  O   O6        1.0  0.2516039609909058  0.5615537166595458  0.5906352996826172  1.0000
