data_image752
_chemical_formula_structural       Ba3OTiOBaO3TiO
_chemical_formula_sum              "Ba4 O6 Ti2"
_cell_length_a       4.028944749362789
_cell_length_b       4.030092262555764
_cell_length_c       14.712197303771973
_cell_angle_alpha    89.99385533432635
_cell_angle_beta     90.02046575250709
_cell_angle_gamma    90.00630676918054

_space_group_name_H-M_alt    "P 1"
_space_group_IT_number       1

loop_
  _space_group_symop_operation_xyz
  'x, y, z'

loop_
  _atom_site_type_symbol
  _atom_site_label
  _atom_site_symmetry_multiplicity
  _atom_site_fract_x
  _atom_site_fract_y
  _atom_site_fract_z
  _atom_site_occupancy
  Ba  Ba1       1.0  0.4647896885871887  0.5212803483009338  0.4861890971660614  1.0000
  Ba  Ba2       1.0  0.46484261751174927  0.5208816528320312  0.7522115111351013  1.0000
  Ba  Ba3       1.0  0.9641474485397339  0.021622395142912865  0.285714715719223  1.0000
  O   O1        1.0  0.9645143747329712  0.02153497003018856  0.4751623868942261  1.0000
  Ti  Ti1       1.0  0.9648513197898865  0.020957801491022107  0.6084100008010864  1.0000
  O   O2        1.0  0.4642612636089325  0.02192675322294235  0.14859142899513245  1.0000
  Ba  Ba4       1.0  0.9637466073036194  0.021707106381654736  0.019954783841967583  1.0000
  O   O3        1.0  0.46412956714630127  0.5217733979225159  0.29659199714660645  1.0000
  O   O4        1.0  0.46479925513267517  0.02106882818043232  0.623395562171936  1.0000
  O   O5        1.0  0.9645645618438721  0.5209363102912903  0.6232940554618835  1.0000
  Ti  Ti2       1.0  0.46396851539611816  0.5220463871955872  0.16353432834148407  1.0000
  O   O6        1.0  0.9642004370689392  0.5219765901565552  0.1486331671476364  1.0000
