data_image381
_chemical_formula_structural       BaO2TiBa2OBaO3TiO2
_chemical_formula_sum              "Ba4 O8 Ti2"
_cell_length_a       5.963666469997951
_cell_length_b       7.282227918139658
_cell_length_c       7.128229141235352
_cell_angle_alpha    73.83902383508408
_cell_angle_beta     65.4680783407672
_cell_angle_gamma    66.31436684812957

_space_group_name_H-M_alt    "P 1"
_space_group_IT_number       1

loop_
  _space_group_symop_operation_xyz
  'x, y, z'

loop_
  _atom_site_type_symbol
  _atom_site_label
  _atom_site_symmetry_multiplicity
  _atom_site_fract_x
  _atom_site_fract_y
  _atom_site_fract_z
  _atom_site_occupancy
  Ba  Ba1       1.0  0.508019208908081  0.3643392920494079  0.19887709617614746  1.0000
  O   O1        1.0  0.6820176243782043  0.9516083598136902  0.27342379093170166  1.0000
  O   O2        1.0  0.0038320417515933848  0.5809019207954406  0.47851386666297907  1.0000
  Ti  Ti1       1.0  0.835806131362915  0.923175036907196  0.9907126426696777  1.0000
  Ba  Ba2       1.0  0.182691365480423  0.4138506352901458  0.8018242716789246  1.0000
  Ba  Ba3       1.0  0.2094538658857346  0.9092001914978026  0.25804367661476135  1.0000
  O   O3        1.0  0.013971859589219102  0.3079163432121277  0.24383188784122467  1.0000
  Ba  Ba4       1.0  0.5266391634941101  0.8249188065528869  0.7078067064285278  1.0000
  O   O4        1.0  0.7212840914726258  0.6748863458633422  0.02860894240438938  1.0000
  O   O5        1.0  0.5704731345176697  0.08666330575942993  0.8884104490280151  1.0000
  O   O6        1.0  0.15831181406974798  0.6746480464935302  0.031087180599570274  1.0000
  Ti  Ti2       1.0  0.8596190810203552  0.5668262839317322  0.2988848090171814  1.0000
  O   O7        1.0  0.5223088264465333  0.5786757469177246  0.47765156626701355  1.0000
  O   O8        1.0  0.0449836626648903  0.08347133547067641  0.8806585669517517  1.0000
