data_image570
_chemical_formula_structural       Ba2OTiO2
_chemical_formula_sum              "Ba2 O3 Ti1"
_cell_length_a       3.9777112238885106
_cell_length_b       4.0485548153778534
_cell_length_c       7.377843379974365
_cell_angle_alpha    105.99646881722423
_cell_angle_beta     105.86537054259905
_cell_angle_gamma    90.09459376354694

_space_group_name_H-M_alt    "P 1"
_space_group_IT_number       1

loop_
  _space_group_symop_operation_xyz
  'x, y, z'

loop_
  _atom_site_type_symbol
  _atom_site_label
  _atom_site_symmetry_multiplicity
  _atom_site_fract_x
  _atom_site_fract_y
  _atom_site_fract_z
  _atom_site_occupancy
  Ba  Ba1       1.0  0.6418911218643188  0.2747844457626343  0.0545908361673355  1.0000
  Ba  Ba2       1.0  0.35130557417869573  0.9832108020782471  0.47124344110488886  1.0000
  O   O1        1.0  0.1420404613018036  0.7744554877281189  0.05379102379083633  1.0000
  Ti  Ti1       1.0  0.996303677558899  0.6288701891899109  0.7627714872360228  1.0000
  O   O2        1.0  0.9963452816009523  0.12923626601696014  0.7625619769096373  1.0000
  O   O3        1.0  0.8508161306381227  0.48315781354904175  0.4711897671222686  1.0000
