data_image583
_chemical_formula_structural       Ti2O2BaTiO6
_chemical_formula_sum              "Ti3 O8 Ba1"
_cell_length_a       3.8987302549626173
_cell_length_b       6.680121652178166
_cell_length_c       6.7275166511535645
_cell_angle_alpha    109.59181726993836
_cell_angle_beta     106.98122501432398
_cell_angle_gamma    90.08591940886414

_space_group_name_H-M_alt    "P 1"
_space_group_IT_number       1

loop_
  _space_group_symop_operation_xyz
  'x, y, z'

loop_
  _atom_site_type_symbol
  _atom_site_label
  _atom_site_symmetry_multiplicity
  _atom_site_fract_x
  _atom_site_fract_y
  _atom_site_fract_z
  _atom_site_occupancy
  Ti  Ti1       1.0  0.2523707449436188  0.22961702942848208  0.15078234672546387  1.0000
  Ti  Ti2       1.0  0.021151591092348102  0.8466108441352844  0.6893871426582336  1.0000
  O   O1        1.0  0.41609969735145574  0.24238564074039462  0.4764804244041443  1.0000
  O   O2        1.0  0.896026909351349  0.9233569502830506  0.43864789605140686  1.0000
  Ba  Ba1       1.0  0.6879387497901918  0.6433286070823669  0.02093229629099369  1.0000
  Ti  Ti3       1.0  0.9435278177261354  0.23670881986618045  0.5322604775428772  1.0000
  O   O3        1.0  0.28288984298706055  0.5125809907913209  0.21146385371685028  1.0000
  O   O4        1.0  0.0043053533881902695  0.5446524620056152  0.6562284231185913  1.0000
  O   O5        1.0  0.17947980761528018  0.9238483309745789  0.005140640772879124  1.0000
  O   O6        1.0  0.7809205055236818  0.22228606045246124  0.2051393985748291  1.0000
  O   O7        1.0  0.08891006559133531  0.207882434129715  0.8242223858833313  1.0000
  O   O8        1.0  0.5269737839698792  0.8427661657333374  0.7012325525283813  1.0000
