data_image566
_chemical_formula_structural       OBa2OTi2O2
_chemical_formula_sum              "O4 Ba2 Ti2"
_cell_length_a       3.693832638009943
_cell_length_b       4.087912962081145
_cell_length_c       8.547381401062012
_cell_angle_alpha    90.03758220673097
_cell_angle_beta     89.95878231241834
_cell_angle_gamma    89.98616454073522

_space_group_name_H-M_alt    "P 1"
_space_group_IT_number       1

loop_
  _space_group_symop_operation_xyz
  'x, y, z'

loop_
  _atom_site_type_symbol
  _atom_site_label
  _atom_site_symmetry_multiplicity
  _atom_site_fract_x
  _atom_site_fract_y
  _atom_site_fract_z
  _atom_site_occupancy
  O   O1        1.0  0.46707433462142944  0.7145608067512512  0.11481693387031555  1.0000
  Ba  Ba1       1.0  0.4674183130264282  0.21505726873874664  0.5066852569580078  1.0000
  Ba  Ba2       1.0  0.9668253660202026  0.7144265174865723  0.8441751599311829  1.0000
  O   O2        1.0  0.9671622514724731  0.2148599177598953  0.236541286110878  1.0000
  Ti  Ti1       1.0  0.46695783734321594  0.21463996171951294  0.10203525424003601  1.0000
  Ti  Ti2       1.0  0.9683589339256287  0.7149174213409424  0.24957166612148285  1.0000
  O   O3        1.0  0.4668267071247101  0.21471747756004333  0.8650561571121216  1.0000
  O   O4        1.0  0.9679016470909119  0.714950442314148  0.4853832721710205  1.0000
