data_image712
_chemical_formula_structural       TiBaO2BaO3TiBaO
_chemical_formula_sum              "Ti2 Ba3 O6"
_cell_length_a       4.028260652502386
_cell_length_b       4.025397736009434
_cell_length_c       11.252681732177734
_cell_angle_alpha    100.3073797144058
_cell_angle_beta     100.32259039576212
_cell_angle_gamma    90.06094844131856

_space_group_name_H-M_alt    "P 1"
_space_group_IT_number       1

loop_
  _space_group_symop_operation_xyz
  'x, y, z'

loop_
  _atom_site_type_symbol
  _atom_site_label
  _atom_site_symmetry_multiplicity
  _atom_site_fract_x
  _atom_site_fract_y
  _atom_site_fract_z
  _atom_site_occupancy
  Ti  Ti1       1.0  0.4845975339412689  0.9436333775520325  0.42090803384780884  1.0000
  Ba  Ba1       1.0  0.06818150728940964  0.5273574590682983  0.5875532031059265  1.0000
  O   O1        1.0  0.7935340404510498  0.752524733543396  0.037805892527103424  1.0000
  O   O2        1.0  0.29348379373550415  0.2527974247932434  0.037892375141382224  1.0000
  Ba  Ba2       1.0  0.7023904323577881  0.16179655492305756  0.8569414615631104  1.0000
  O   O3        1.0  0.47727906703948975  0.4362265467643737  0.40707504749298096  1.0000
  O   O4        1.0  0.977169394493103  0.9365955591201781  0.40717095136642456  1.0000
  O   O5        1.0  0.19532045722007751  0.6548999547958374  0.8432884216308594  1.0000
  Ti  Ti2       1.0  0.28599265217781067  0.7455453276634216  0.02366863191127777  1.0000
  Ba  Ba3       1.0  0.8855308294296265  0.34469854831695557  0.2226022183895111  1.0000
  O   O6        1.0  0.574998676776886  0.03402310982346535  0.6005058288574219  1.0000
