data_image580
_chemical_formula_structural       Ti2OBaTiOBaO2TiO6
_chemical_formula_sum              "Ti4 O10 Ba2"
_cell_length_a       3.8195495950563325
_cell_length_b       5.767822918219569
_cell_length_c       11.61467456817627
_cell_angle_alpha    89.96414401398852
_cell_angle_beta     89.9922980513036
_cell_angle_gamma    89.97240171067355

_space_group_name_H-M_alt    "P 1"
_space_group_IT_number       1

loop_
  _space_group_symop_operation_xyz
  'x, y, z'

loop_
  _atom_site_type_symbol
  _atom_site_label
  _atom_site_symmetry_multiplicity
  _atom_site_fract_x
  _atom_site_fract_y
  _atom_site_fract_z
  _atom_site_occupancy
  Ti  Ti1       1.0  0.6621918678283691  0.7902840375900269  0.5371683835983276  1.0000
  Ti  Ti2       1.0  0.6622376441955566  0.29214662313461304  0.5856636762619019  1.0000
  O   O1        1.0  0.662431001663208  0.5405840873718262  0.4427608251571655  1.0000
  Ba  Ba1       1.0  0.1619367152452469  0.2895505428314209  0.3199644088745117  1.0000
  Ti  Ti3       1.0  0.6623345613479614  0.2890653908252716  0.04065118730068207  1.0000
  O   O2        1.0  0.16244292259216309  0.7897979021072388  0.061828047037124634  1.0000
  Ba  Ba2       1.0  0.1620279848575592  0.7893357276916503  0.8176812529563904  1.0000
  O   O3        1.0  0.6622881889343262  0.03760712966322899  0.44200608134269714  1.0000
  O   O4        1.0  0.6622008681297302  0.511717677116394  0.16791602969169617  1.0000
  Ti  Ti4       1.0  0.6621226072311401  0.7887884974479674  0.08268756419420242  1.0000
  O   O5        1.0  0.6621516942977905  0.06784314662218094  0.1668810099363327  1.0000
  O   O6        1.0  0.6625913381576538  0.0410391166806221  0.943099856376648  1.0000
  O   O7        1.0  0.1622336059808731  0.2889295816421508  0.5620566606521606  1.0000
  O   O8        1.0  0.6625140905380249  0.5390043258666992  0.9437063932418823  1.0000
  O   O9        1.0  0.6622632741928101  0.01117200870066881  0.6681119799613953  1.0000
  O   O10       1.0  0.6626306772232056  0.5672112107276917  0.6674720048904419  1.0000
