data_image542
_chemical_formula_structural       Ba2O2TiO2TiO
_chemical_formula_sum              "Ba2 O5 Ti2"
_cell_length_a       4.08684581410063
_cell_length_b       6.414074983408719
_cell_length_c       6.0242486000061035
_cell_angle_alpha    105.61728995782201
_cell_angle_beta     109.89012111764963
_cell_angle_gamma    89.93973273375178

_space_group_name_H-M_alt    "P 1"
_space_group_IT_number       1

loop_
  _space_group_symop_operation_xyz
  'x, y, z'

loop_
  _atom_site_type_symbol
  _atom_site_label
  _atom_site_symmetry_multiplicity
  _atom_site_fract_x
  _atom_site_fract_y
  _atom_site_fract_z
  _atom_site_occupancy
  Ba  Ba1       1.0  0.8939569592475891  0.5412939786911012  0.971763551235199  1.0000
  Ba  Ba2       1.0  0.7015056014060974  0.9005153179168701  0.5850651264190674  1.0000
  O   O1        1.0  0.14709027111530304  0.6114310026168823  0.4763759672641754  1.0000
  O   O2        1.0  0.4468744993209839  0.830292820930481  0.07848890870809555  1.0000
  Ti  Ti1       1.0  0.45653507113456726  0.12325809150934221  0.09656911343336105  1.0000
  O   O3        1.0  0.2976312041282654  0.22110025584697723  0.7781838774681091  1.0000
  O   O4        1.0  0.9579131603240967  0.15962590277194977  0.09921220690011978  1.0000
  Ti  Ti2       1.0  0.13846370577812195  0.3182394206523895  0.45977798104286194  1.0000
  O   O5        1.0  0.6364153623580933  0.28120383620262146  0.4550698697566986  1.0000
