data_image471
_chemical_formula_structural       OTiBaOTiOBaTiO2Ba2O4
_chemical_formula_sum              "O9 Ti3 Ba4"
_cell_length_a       5.948106961641726
_cell_length_b       6.423624773692945
_cell_length_c       8.494379997253418
_cell_angle_alpha    82.88811624666273
_cell_angle_beta     69.84795288574593
_cell_angle_gamma    61.36463186233705

_space_group_name_H-M_alt    "P 1"
_space_group_IT_number       1

loop_
  _space_group_symop_operation_xyz
  'x, y, z'

loop_
  _atom_site_type_symbol
  _atom_site_label
  _atom_site_symmetry_multiplicity
  _atom_site_fract_x
  _atom_site_fract_y
  _atom_site_fract_z
  _atom_site_occupancy
  O   O1        1.0  0.27235540747642517  0.3062154948711395  0.4754939377307892  1.0000
  Ti  Ti1       1.0  0.6120006442070007  0.08675708621740341  0.2810826003551483  1.0000
  Ba  Ba1       1.0  0.7215489149093629  0.44889438152313227  0.5863303542137146  1.0000
  O   O2        1.0  0.23271115124225616  0.8600650429725647  0.737048327922821  1.0000
  Ti  Ti2       1.0  0.36695054173469543  0.10037875920534134  0.6566827893257141  1.0000
  O   O3        1.0  0.6633175015449524  0.8576447963714598  0.4676886200904846  1.0000
  Ba  Ba2       1.0  0.5012215971946716  0.7244519591331482  0.9754006862640381  1.0000
  Ti  Ti3       1.0  0.8567912578582764  0.0735493004322052  0.9040060639381409  1.0000
  O   O4        1.0  0.561418652534485  0.31583499908447266  0.09464702010154721  1.0000
  O   O5        1.0  0.41261798143386846  0.9617556333541869  0.2216084152460098  1.0000
  Ba  Ba3       1.0  0.09135442972183228  0.3698894679546356  0.10362588614225388  1.0000
  Ba  Ba4       1.0  0.1320773661136628  0.8035442233085631  0.4578268229961395  1.0000
  O   O6        1.0  0.8112878203392029  0.21144017577171326  0.3391447067260742  1.0000
  O   O7        1.0  0.611755907535553  0.0865703597664833  0.7806532979011536  1.0000
  O   O8        1.0  0.9518774747848511  0.8672946095466614  0.0871214047074318  1.0000
  O   O9        1.0  0.9900496006011963  0.313846230506897  0.824833869934082  1.0000
