data_image452
_chemical_formula_structural       BaTiO2
_chemical_formula_sum              "Ba1 Ti1 O2"
_cell_length_a       3.3160909448203997
_cell_length_b       3.3162112985167456
_cell_length_c       6.2897138595581055
_cell_angle_alpha    74.74434406747538
_cell_angle_beta     74.7306358893881
_cell_angle_gamma    60.02533720698261

_space_group_name_H-M_alt    "P 1"
_space_group_IT_number       1

loop_
  _space_group_symop_operation_xyz
  'x, y, z'

loop_
  _atom_site_type_symbol
  _atom_site_label
  _atom_site_symmetry_multiplicity
  _atom_site_fract_x
  _atom_site_fract_y
  _atom_site_fract_z
  _atom_site_occupancy
  Ba  Ba1       1.0  0.4299207329750061  0.6476972699165344  0.5792298913002014  1.0000
  Ti  Ti1       1.0  0.9296674728393555  0.14818087220191956  0.07915440946817398  1.0000
  O   O1        1.0  0.20696000754833221  0.42498359084129333  0.24717116355895996  1.0000
  O   O2        1.0  0.652921199798584  0.8702795505523682  0.9113751649856567  1.0000
