data_image475
_chemical_formula_structural       TiBaTiO2
_chemical_formula_sum              "Ti2 Ba1 O2"
_cell_length_a       3.5494936544568327
_cell_length_b       3.550373488603473
_cell_length_c       6.586510181427002
_cell_angle_alpha    105.72490077921056
_cell_angle_beta     105.71674521234193
_cell_angle_gamma    89.95300397253703

_space_group_name_H-M_alt    "P 1"
_space_group_IT_number       1

loop_
  _space_group_symop_operation_xyz
  'x, y, z'

loop_
  _atom_site_type_symbol
  _atom_site_label
  _atom_site_symmetry_multiplicity
  _atom_site_fract_x
  _atom_site_fract_y
  _atom_site_fract_z
  _atom_site_occupancy
  Ti  Ti1       1.0  0.1862579584121704  0.8631888628005981  0.5537766218185425  1.0000
  Ba  Ba1       1.0  0.435698926448822  0.6129627227783203  0.053568750619888306  1.0000
  Ti  Ti2       1.0  0.6856694221496582  0.3632301986217499  0.5530458688735962  1.0000
  O   O1        1.0  0.08615799993276596  0.2632182836532593  0.35299503803253174  1.0000
  O   O2        1.0  0.7855879068374634  0.9630704522132874  0.7540497779846191  1.0000
