data_image318
_chemical_formula_structural       OBaOBaTiOBaOTiOTiOBaO5
_chemical_formula_sum              "O11 Ba4 Ti3"
_cell_length_a       4.011460345211337
_cell_length_b       4.010219187004796
_cell_length_c       17.767988204956055
_cell_angle_alpha    89.96953985882416
_cell_angle_beta     89.99181310767166
_cell_angle_gamma    89.95705427412354

_space_group_name_H-M_alt    "P 1"
_space_group_IT_number       1

loop_
  _space_group_symop_operation_xyz
  'x, y, z'

loop_
  _atom_site_type_symbol
  _atom_site_label
  _atom_site_symmetry_multiplicity
  _atom_site_fract_x
  _atom_site_fract_y
  _atom_site_fract_z
  _atom_site_occupancy
  O   O1        1.0  0.1310291439294815  0.44716721773147583  0.6161686182022095  1.0000
  Ba  Ba1       1.0  0.6319111585617065  0.9484547376632689  0.08557432889938354  1.0000
  O   O2        1.0  0.6316091418266296  0.9481272697448729  0.22920361161231995  1.0000
  Ba  Ba2       1.0  0.6303939819335938  0.9472525119781494  0.610927164554596  1.0000
  Ti  Ti1       1.0  0.13080434501171112  0.44770103693008423  0.4862516224384308  1.0000
  O   O3        1.0  0.13144180178642273  0.4469065368175506  0.843024492263794  1.0000
  Ba  Ba3       1.0  0.6307146549224854  0.9482860565185547  0.37219366431236267  1.0000
  O   O4        1.0  0.6306856274604797  0.4470812380313873  0.7299079298973083  1.0000
  Ti  Ti2       1.0  0.13099896907806396  0.4469251930713653  0.7283072471618652  1.0000
  O   O5        1.0  0.13095338642597198  0.947463870048523  0.4954427182674408  1.0000
  Ti  Ti3       1.0  0.13152667880058289  0.4477660357952118  0.9719885587692261  1.0000
  O   O6        1.0  0.13169540464878082  0.9477741122245789  0.9637445211410522  1.0000
  Ba  Ba4       1.0  0.6312455534934998  0.946944534778595  0.8474836945533752  1.0000
  O   O7        1.0  0.631058394908905  0.446787029504776  0.49537208676338196  1.0000
  O   O8        1.0  0.1313408762216568  0.44825416803359985  0.07645983248949051  1.0000
  O   O9        1.0  0.13114911317825317  0.4484858810901642  0.3818652033805847  1.0000
  O   O10       1.0  0.6317997574806213  0.44785261154174805  0.9636403918266296  1.0000
  O   O11       1.0  0.130899116396904  0.947077453136444  0.7294749617576599  1.0000
