data_image659
_chemical_formula_structural       BaTiBaO2TiO4
_chemical_formula_sum              "Ba2 Ti2 O6"
_cell_length_a       5.657460494198087
_cell_length_b       5.661518918795295
_cell_length_c       5.841578006744385
_cell_angle_alpha    118.88089112983691
_cell_angle_beta     118.9106868002976
_cell_angle_gamma    89.83103663767298

_space_group_name_H-M_alt    "P 1"
_space_group_IT_number       1

loop_
  _space_group_symop_operation_xyz
  'x, y, z'

loop_
  _atom_site_type_symbol
  _atom_site_label
  _atom_site_symmetry_multiplicity
  _atom_site_fract_x
  _atom_site_fract_y
  _atom_site_fract_z
  _atom_site_occupancy
  Ba  Ba1       1.0  0.7337196469306946  0.999195635318756  0.07735144346952438  1.0000
  Ti  Ti1       1.0  0.9947116374969482  0.7600071430206298  0.5977563858032229  1.0000
  Ba  Ba2       1.0  0.23368075489997864  0.4989712238311767  0.07695218920707703  1.0000
  O   O1        1.0  0.2202233225107193  0.9854432940483093  0.5480861067771913  1.0000
  O   O2        1.0  0.7193607687950134  0.9855164885520936  0.5483155846595766  1.0000
  Ti  Ti2       1.0  0.4953839182853699  0.26051151752471924  0.5994855165481567  1.0000
  O   O3        1.0  0.2204410582780838  0.485046923160553  0.5483515858650208  1.0000
  O   O4        1.0  0.7191739678382874  0.4841302633285522  0.5474472045898439  1.0000
  O   O5        1.0  0.7108966708183289  0.4759809970855713  0.02945347875356682  1.0000
  O   O6        1.0  0.2094002515077591  0.9745411276817322  0.0270555894821883  1.0000
