data_image479
_chemical_formula_structural       OBaTiOBaTiO4
_chemical_formula_sum              "O6 Ba2 Ti2"
_cell_length_a       5.737126361908867
_cell_length_b       5.408228689498514
_cell_length_c       7.294763565063477
_cell_angle_alpha    89.90802717442202
_cell_angle_beta     118.07611565435955
_cell_angle_gamma    89.91968630704191

_space_group_name_H-M_alt    "P 1"
_space_group_IT_number       1

loop_
  _space_group_symop_operation_xyz
  'x, y, z'

loop_
  _atom_site_type_symbol
  _atom_site_label
  _atom_site_symmetry_multiplicity
  _atom_site_fract_x
  _atom_site_fract_y
  _atom_site_fract_z
  _atom_site_occupancy
  O   O1        1.0  0.7338244318962097  0.40769678354263306  0.5016297101974487  1.0000
  Ba  Ba1       1.0  0.18862329423427582  0.15588250756263733  0.6961320042610168  1.0000
  Ti  Ti1       1.0  0.47456181049346924  0.15554291009902954  0.3517286479473114  1.0000
  O   O2        1.0  0.4575486481189728  0.15551969408988953  0.10325668752193451  1.0000
  Ba  Ba2       1.0  0.7868341207504272  0.6556083559989929  0.19261591136455536  1.0000
  Ti  Ti2       1.0  0.5004854202270508  0.6553826332092285  0.5357195734977722  1.0000
  O   O3        1.0  0.24183408915996552  0.4031151235103607  0.386197030544281  1.0000
  O   O4        1.0  0.240762859582901  0.9067152142524719  0.38309994339942927  1.0000
  O   O5        1.0  0.7345917224884033  0.9050702452659607  0.5041151642799377  1.0000
  O   O6        1.0  0.516212522983551  0.6559985280036926  0.7848330736160278  1.0000
