data_image495
_chemical_formula_structural       TiBa3OTiO4
_chemical_formula_sum              "Ti2 Ba3 O5"
_cell_length_a       5.4659511874433155
_cell_length_b       6.74136503920151
_cell_length_c       6.830731391906738
_cell_angle_alpha    67.91742048753811
_cell_angle_beta     72.25628334180367
_cell_angle_gamma    72.19720295537543

_space_group_name_H-M_alt    "P 1"
_space_group_IT_number       1

loop_
  _space_group_symop_operation_xyz
  'x, y, z'

loop_
  _atom_site_type_symbol
  _atom_site_label
  _atom_site_symmetry_multiplicity
  _atom_site_fract_x
  _atom_site_fract_y
  _atom_site_fract_z
  _atom_site_occupancy
  Ti  Ti1       1.0  0.0019672310445457697  0.3976646959781647  0.5485556721687317  1.0000
  Ba  Ba1       1.0  0.04889287054538731  0.7469369769096373  0.9881426692008972  1.0000
  Ba  Ba2       1.0  0.7702282071113586  0.9872538447380066  0.4685336947441101  1.0000
  Ba  Ba3       1.0  0.40114009380340576  0.2302904576063156  0.969460129737854  1.0000
  O   O1        1.0  0.12074483186006549  0.573103129863739  0.6610578298568726  1.0000
  Ti  Ti2       1.0  0.39351150393486023  0.6177059412002563  0.38534921407699585  1.0000
  O   O2        1.0  0.9011378884315491  0.13872788846492767  0.7290196418762207  1.0000
  O   O3        1.0  0.23648658394813543  0.8808588981628417  0.2224014699459076  1.0000
  O   O4        1.0  0.7407287955284119  0.6099088191986084  0.4002290666103363  1.0000
  O   O5        1.0  0.3186648488044739  0.39310991764068604  0.31165772676467896  1.0000
