data_image444
_chemical_formula_structural       BaTi2OTiO6
_chemical_formula_sum              "Ba1 Ti3 O7"
_cell_length_a       3.79146039103033
_cell_length_b       5.92698556678453
_cell_length_c       8.3810453414917
_cell_angle_alpha    108.70982430224002
_cell_angle_beta     103.00751727560419
_cell_angle_gamma    90.17131714315558

_space_group_name_H-M_alt    "P 1"
_space_group_IT_number       1

loop_
  _space_group_symop_operation_xyz
  'x, y, z'

loop_
  _atom_site_type_symbol
  _atom_site_label
  _atom_site_symmetry_multiplicity
  _atom_site_fract_x
  _atom_site_fract_y
  _atom_site_fract_z
  _atom_site_occupancy
  Ba  Ba1       1.0  0.10769151151180267  0.5202761888504028  0.5550619959831238  1.0000
  Ti  Ti1       1.0  0.4055468738079071  0.33966919779777527  0.1493837982416153  1.0000
  Ti  Ti2       1.0  0.7466243505477905  0.14963263273239136  0.8323813080787659  1.0000
  O   O1        1.0  0.48554611206054693  0.1989014595746994  0.30952975153923035  1.0000
  Ti  Ti3       1.0  0.5520179867744446  0.9666978120803833  0.44064900279045105  1.0000
  O   O2        1.0  0.6809234023094177  0.33022162318229675  0.7018133401870728  1.0000
  O   O3        1.0  0.8758983016014099  0.3449869155883789  0.0899425745010376  1.0000
  O   O4        1.0  0.06258731335401535  0.01320358831435442  0.46444466710090637  1.0000
  O   O5        1.0  0.4800171256065369  0.6569136381149292  0.297238826751709  1.0000
  O   O6        1.0  0.6570925116539001  0.8630439043045044  0.6534547209739685  1.0000
  O   O7        1.0  0.28135937452316284  0.12422562390565871  0.9012280702590942  1.0000
