data_image221
_chemical_formula_structural       BaOBaTiO5Ti
_chemical_formula_sum              "Ba2 O6 Ti2"
_cell_length_a       5.7258381952366095
_cell_length_b       5.727508651023384
_cell_length_c       5.726504325866699
_cell_angle_alpha    60.00878553262425
_cell_angle_beta     60.02596358858047
_cell_angle_gamma    60.0294184636981

_space_group_name_H-M_alt    "P 1"
_space_group_IT_number       1

loop_
  _space_group_symop_operation_xyz
  'x, y, z'

loop_
  _atom_site_type_symbol
  _atom_site_label
  _atom_site_symmetry_multiplicity
  _atom_site_fract_x
  _atom_site_fract_y
  _atom_site_fract_z
  _atom_site_occupancy
  Ba  Ba1       1.0  0.18986237049102783  0.5538212656974794  0.34663307666778564  1.0000
  O   O1        1.0  0.689887046813965  0.5538557767868042  0.3466252088546753  1.0000
  Ba  Ba2       1.0  0.6898766756057739  0.053912557661533356  0.8466442227363586  1.0000
  Ti  Ti1       1.0  0.4400754272937775  0.804101586341858  0.5965292453765869  1.0000
  O   O2        1.0  0.6897212266921997  0.5540170669555664  0.8466717004776001  1.0000
  O   O3        1.0  0.18996326625347137  0.5538964867591858  0.8465903401374817  1.0000
  O   O4        1.0  0.6899616122245789  0.05380273237824439  0.3465062081813812  1.0000
  O   O5        1.0  0.19003193080425262  0.05375658720731735  0.8466110229492188  1.0000
  O   O6        1.0  0.18999847769737244  0.0538734756410122  0.3468203842639923  1.0000
  Ti  Ti2       1.0  0.9403151273727418  0.304082453250885  0.09638628363609314  1.0000
