data_image345
_chemical_formula_structural       OTiBaO3
_chemical_formula_sum              "O4 Ti1 Ba1"
_cell_length_a       3.8263122158458978
_cell_length_b       5.156461204583292
_cell_length_c       5.186100959777832
_cell_angle_alpha    86.57963511268498
_cell_angle_beta     89.9226301246131
_cell_angle_gamma    89.9620403125202

_space_group_name_H-M_alt    "P 1"
_space_group_IT_number       1

loop_
  _space_group_symop_operation_xyz
  'x, y, z'

loop_
  _atom_site_type_symbol
  _atom_site_label
  _atom_site_symmetry_multiplicity
  _atom_site_fract_x
  _atom_site_fract_y
  _atom_site_fract_z
  _atom_site_occupancy
  O   O1        1.0  0.2630169689655304  0.8877366185188295  0.8199576139450073  1.0000
  Ti  Ti1       1.0  0.7626891136169434  0.7801932692527771  0.7151795029640198  1.0000
  Ba  Ba1       1.0  0.2629407048225403  0.27869659662246704  0.21534861624240875  1.0000
  O   O2        1.0  0.7632220983505249  0.524885356426239  0.9684667587280273  1.0000
  O   O3        1.0  0.762866735458374  0.03277120366692543  0.4598577320575714  1.0000
  O   O4        1.0  0.26330065727233887  0.675116777420044  0.6111878156661987  1.0000
