data_image45
_chemical_formula_structural       BaTiO3BaTi2OTiO6
_chemical_formula_sum              "Ba2 Ti4 O10"
_cell_length_a       3.8219075111763297
_cell_length_b       6.062401623329627
_cell_length_c       10.170272827148438
_cell_angle_alpha    90.33759146755038
_cell_angle_beta     90.11441500547123
_cell_angle_gamma    90.07489552784031

_space_group_name_H-M_alt    "P 1"
_space_group_IT_number       1

loop_
  _space_group_symop_operation_xyz
  'x, y, z'

loop_
  _atom_site_type_symbol
  _atom_site_label
  _atom_site_symmetry_multiplicity
  _atom_site_fract_x
  _atom_site_fract_y
  _atom_site_fract_z
  _atom_site_occupancy
  Ba  Ba1       1.0  0.6006582379341125  0.18894673883914948  0.4634898006916046  1.0000
  Ti  Ti1       1.0  0.10055182874202727  0.7256196737289429  0.6389248967170715  1.0000
  O   O1        1.0  0.1008949503302574  0.6114236116409302  0.09581729769706726  1.0000
  O   O2        1.0  0.10088952630758284  0.4285295009613037  0.5962828397750854  1.0000
  O   O3        1.0  0.10050182044506072  0.03149021416902542  0.2034919261932373  1.0000
  Ba  Ba2       1.0  0.6001298427581787  0.8515086770057678  0.9621599316596985  1.0000
  Ti  Ti2       1.0  0.10059566795825957  0.31349247694015503  0.13852699100971222  1.0000
  Ti  Ti3       1.0  0.10092093795537947  0.3044423758983612  0.7810118794441223  1.0000
  O   O4        1.0  0.1006633937358856  0.8330326676368713  0.46753349900245667  1.0000
  Ti  Ti4       1.0  0.10071106255054472  0.7365704774856567  0.28180742263793945  1.0000
  O   O5        1.0  0.10117366164922713  0.41667297482490545  0.3138127326965332  1.0000
  O   O6        1.0  0.1004737690091133  0.6237464547157288  0.8160402774810791  1.0000
  O   O7        1.0  0.601023256778717  0.7493306398391724  0.2833597660064697  1.0000
  O   O8        1.0  0.10035171359777449  0.20817710459232333  0.9666892886161804  1.0000
  O   O9        1.0  0.6005762815475464  0.29177263379096985  0.7829047441482544  1.0000
  O   O10       1.0  0.10056545585393904  0.007558010518550873  0.706204354763031  1.0000
