data_image680
_chemical_formula_structural       BaTiO2
_chemical_formula_sum              "Ba1 Ti1 O2"
_cell_length_a       3.2948711700126143
_cell_length_b       3.29615599262001
_cell_length_c       6.27215051651001
_cell_angle_alpha    74.86422071733591
_cell_angle_beta     74.85515672509905
_cell_angle_gamma    60.15767520294471

_space_group_name_H-M_alt    "P 1"
_space_group_IT_number       1

loop_
  _space_group_symop_operation_xyz
  'x, y, z'

loop_
  _atom_site_type_symbol
  _atom_site_label
  _atom_site_symmetry_multiplicity
  _atom_site_fract_x
  _atom_site_fract_y
  _atom_site_fract_z
  _atom_site_occupancy
  Ba  Ba1       1.0  0.8778371214866639  0.6498927474021912  0.41866701841354365  1.0000
  Ti  Ti1       1.0  0.3781653046607971  0.15048618614673615  0.9187166690826415  1.0000
  O   O1        1.0  0.6549777984619141  0.4268920421600342  0.0875789150595665  1.0000
  O   O2        1.0  0.10098721832036973  0.872924268245697  0.7497572302818298  1.0000
