data_image648
_chemical_formula_structural       TiOBaO
_chemical_formula_sum              "Ti1 O2 Ba1"
_cell_length_a       3.3099415884409744
_cell_length_b       3.3097766348999693
_cell_length_c       6.311684608459473
_cell_angle_alpha    74.76228108296641
_cell_angle_beta     74.74593453464902
_cell_angle_gamma    59.95191035197492

_space_group_name_H-M_alt    "P 1"
_space_group_IT_number       1

loop_
  _space_group_symop_operation_xyz
  'x, y, z'

loop_
  _atom_site_type_symbol
  _atom_site_label
  _atom_site_symmetry_multiplicity
  _atom_site_fract_x
  _atom_site_fract_y
  _atom_site_fract_z
  _atom_site_occupancy
  Ti  Ti1       1.0  0.9662531614303588  0.9243956208229065  0.8248938322067261  1.0000
  O   O1        1.0  0.24385762214660645  0.20245128870010376  0.9929882884025574  1.0000
  Ba  Ba1       1.0  0.46641024947166443  0.42502278089523315  0.3263675570487976  1.0000
  O   O2        1.0  0.688904881477356  0.6476370096206665  0.6588212847709656  1.0000
