data_image674
_chemical_formula_structural       OTiBaO
_chemical_formula_sum              "O2 Ti1 Ba1"
_cell_length_a       3.3248060845655942
_cell_length_b       3.3268400868792996
_cell_length_c       6.317005634307861
_cell_angle_alpha    74.74756813575641
_cell_angle_beta     74.73162608609204
_cell_angle_gamma    59.955543610792205

_space_group_name_H-M_alt    "P 1"
_space_group_IT_number       1

loop_
  _space_group_symop_operation_xyz
  'x, y, z'

loop_
  _atom_site_type_symbol
  _atom_site_label
  _atom_site_symmetry_multiplicity
  _atom_site_fract_x
  _atom_site_fract_y
  _atom_site_fract_z
  _atom_site_occupancy
  O   O1        1.0  0.349054753780365  0.24131202697753906  0.09803140163421631  1.0000
  Ti  Ti1       1.0  0.6264051795005798  0.5179123282432556  0.2660920321941376  1.0000
  Ba  Ba1       1.0  0.1259729564189911  0.01862325519323349  0.7666962742805481  1.0000
  O   O2        1.0  0.9034396409988403  0.7954641580581665  0.43480220437049866  1.0000
