data_image547
_chemical_formula_structural       BaTiBa2TiBaO2TiO5TiO5
_chemical_formula_sum              "Ba4 Ti4 O12"
_cell_length_a       4.188759811654608
_cell_length_b       5.67207483305305
_cell_length_c       11.346796989440918
_cell_angle_alpha    89.99334307034478
_cell_angle_beta     89.99648495719227
_cell_angle_gamma    89.98830239074408

_space_group_name_H-M_alt    "P 1"
_space_group_IT_number       1

loop_
  _space_group_symop_operation_xyz
  'x, y, z'

loop_
  _atom_site_type_symbol
  _atom_site_label
  _atom_site_symmetry_multiplicity
  _atom_site_fract_x
  _atom_site_fract_y
  _atom_site_fract_z
  _atom_site_occupancy
  Ba  Ba1       1.0  0.056855686008930206  0.7267804741859437  0.968441367149353  1.0000
  Ti  Ti1       1.0  0.5414001941680908  0.7271276116371156  0.7187207341194153  1.0000
  Ba  Ba2       1.0  0.05768449231982231  0.22734405100345612  0.21879230439662933  1.0000
  Ba  Ba3       1.0  0.05712568387389183  0.7272757291793823  0.468423068523407  1.0000
  Ti  Ti2       1.0  0.5414508581161499  0.7265685796737672  0.21844074130058289  1.0000
  Ba  Ba4       1.0  0.05750923976302147  0.22628705203533175  0.7187919020652771  1.0000
  O   O1        1.0  0.587609052658081  0.9764137268066406  0.34344011545181274  1.0000
  O   O2        1.0  0.10700996220111847  0.7274745106697083  0.21885809302330017  1.0000
  Ti  Ti3       1.0  0.5418577790260315  0.22654350101947784  0.9684329628944397  1.0000
  O   O3        1.0  0.5894652009010315  0.9764055609703064  0.5938377976417542  1.0000
  O   O4        1.0  0.1087338849902153  0.2269723266363144  0.9688453674316406  1.0000
  O   O5        1.0  0.5901144742965698  0.47699907422065735  0.8440002799034119  1.0000
  O   O6        1.0  0.5889657139778137  0.9773707389831543  0.09334560483694077  1.0000
  O   O7        1.0  0.5885348916053772  0.4774758517742157  0.09407274425029755  1.0000
  Ti  Ti4       1.0  0.5405395030975342  0.22686950862407687  0.46930333971977234  1.0000
  O   O8        1.0  0.588057279586792  0.47727900743484497  0.34365686774253845  1.0000
  O   O9        1.0  0.10970450192689896  0.7263136506080627  0.7189057469367981  1.0000
  O   O10       1.0  0.5898325443267822  0.9770455956459047  0.8441668748855591  1.0000
  O   O11       1.0  0.5895376801490784  0.476805180311203  0.5936818718910217  1.0000
  O   O12       1.0  0.10790674388408661  0.22668474912643435  0.46835264563560486  1.0000
