data_image605
_chemical_formula_structural       TiBa2O2BaO2
_chemical_formula_sum              "Ti1 Ba3 O4"
_cell_length_a       5.667992464226495
_cell_length_b       5.666543698686074
_cell_length_c       6.963365077972412
_cell_angle_alpha    113.96809249975237
_cell_angle_beta     113.98636265635774
_cell_angle_gamma    89.82596219459292

_space_group_name_H-M_alt    "P 1"
_space_group_IT_number       1

loop_
  _space_group_symop_operation_xyz
  'x, y, z'

loop_
  _atom_site_type_symbol
  _atom_site_label
  _atom_site_symmetry_multiplicity
  _atom_site_fract_x
  _atom_site_fract_y
  _atom_site_fract_z
  _atom_site_occupancy
  Ti  Ti1       1.0  0.161849707365036  0.7581217885017395  0.8360933065414429  1.0000
  Ba  Ba1       1.0  0.6617476940155029  0.2589418888092041  0.836786150932312  1.0000
  Ba  Ba2       1.0  0.4114166796207428  0.5081064701080322  0.33560898900032043  1.0000
  O   O1        1.0  0.2571057677268982  0.47089636325836187  0.6452195048332214  1.0000
  O   O2        1.0  0.8747502565383911  0.8538658618927002  0.6454393267631531  1.0000
  Ba  Ba3       1.0  0.9114971160888672  0.008530719205737114  0.3362591862678528  1.0000
  O   O3        1.0  0.06606313586235046  0.6619220972061157  0.02734367735683918  1.0000
  O   O4        1.0  0.4471103549003601  0.04336819052696228  0.02698531001806259  1.0000
