data_image708
_chemical_formula_structural       BaO2BaO3BaTiBaOBaTi3O5
_chemical_formula_sum              "Ba5 O11 Ti4"
_cell_length_a       5.721743483699239
_cell_length_b       7.282641909184768
_cell_length_c       7.861415863037109
_cell_angle_alpha    90.041700809361
_cell_angle_beta     89.948803405831
_cell_angle_gamma    90.04565548941872

_space_group_name_H-M_alt    "P 1"
_space_group_IT_number       1

loop_
  _space_group_symop_operation_xyz
  'x, y, z'

loop_
  _atom_site_type_symbol
  _atom_site_label
  _atom_site_symmetry_multiplicity
  _atom_site_fract_x
  _atom_site_fract_y
  _atom_site_fract_z
  _atom_site_occupancy
  Ba  Ba1       1.0  0.6709017753601074  0.6978469491004945  0.3966538608074188  1.0000
  O   O1        1.0  0.17149822413921356  0.6880654692649842  0.395837664604187  1.0000
  O   O2        1.0  0.6718935370445251  0.35824462771415716  0.5837692618370056  1.0000
  Ba  Ba2       1.0  0.17169812321662903  0.36452543735504156  0.15046413242816925  1.0000
  O   O3        1.0  0.17027704417705536  0.5807229876518251  0.8970385789871216  1.0000
  O   O4        1.0  0.4285500943660736  0.02197856456041336  0.23092664778232574  1.0000
  O   O5        1.0  0.6713707447052002  0.9005125761032106  0.8957066535949707  1.0000
  Ba  Ba3       1.0  0.1717386245727539  0.9170224666595459  0.8967264890670776  1.0000
  Ti  Ti1       1.0  0.171072319149971  0.9428290128707886  0.39607638120651245  1.0000
  Ba  Ba4       1.0  0.1720086634159088  0.36373582482337957  0.6433418989181519  1.0000
  O   O6        1.0  0.9149470925331116  0.022429160773754123  0.23039939999580383  1.0000
  Ba  Ba5       1.0  0.6721293926239014  0.5400694012641907  0.8970096111297607  1.0000
  Ti  Ti2       1.0  0.671643853187561  0.10503973811864854  0.063149094581604  1.0000
  Ti  Ti3       1.0  0.6721480488777161  0.1705150753259659  0.39623937010765076  1.0000
  Ti  Ti4       1.0  0.6719043850898743  0.10575223714113235  0.72980135679245  1.0000
  O   O7        1.0  0.8993119597434998  0.21359424293041232  0.8965623378753662  1.0000
  O   O8        1.0  0.4453642964363098  0.21398921310901645  0.8972623944282532  1.0000
  O   O9        1.0  0.9151065349578857  0.022359328344464302  0.5623782277107239  1.0000
  O   O10       1.0  0.6719658970832825  0.3581865131855011  0.20978964865207672  1.0000
  O   O11       1.0  0.4285008907318115  0.022084742784500126  0.5627880692481995  1.0000
