data_image458
_chemical_formula_structural       BaO2
_chemical_formula_sum              "Ba1 O2"
_cell_length_a       4.212091924903793
_cell_length_b       4.205377549700854
_cell_length_c       4.218630790710449
_cell_angle_alpha    112.09068591183107
_cell_angle_beta     115.23722987596666
_cell_angle_gamma    101.49699932830372

_space_group_name_H-M_alt    "P 1"
_space_group_IT_number       1

loop_
  _space_group_symop_operation_xyz
  'x, y, z'

loop_
  _atom_site_type_symbol
  _atom_site_label
  _atom_site_symmetry_multiplicity
  _atom_site_fract_x
  _atom_site_fract_y
  _atom_site_fract_z
  _atom_site_occupancy
  Ba  Ba1       1.0  0.24618923664093018  0.03260251507163048  0.23015069961547852  1.0000
  O   O1        1.0  0.7461413741111755  0.6921138167381287  0.390444815158844  1.0000
  O   O2        1.0  0.7462742328643799  0.3713241517543793  0.068842813372612  1.0000
