data_image614
_chemical_formula_structural       O2BaOTi
_chemical_formula_sum              "O3 Ba1 Ti1"
_cell_length_a       4.105945835643095
_cell_length_b       4.10548216058174
_cell_length_c       4.104385852813721
_cell_angle_alpha    90.1515644128162
_cell_angle_beta     89.4778823004888
_cell_angle_gamma    90.19874736039245

_space_group_name_H-M_alt    "P 1"
_space_group_IT_number       1

loop_
  _space_group_symop_operation_xyz
  'x, y, z'

loop_
  _atom_site_type_symbol
  _atom_site_label
  _atom_site_symmetry_multiplicity
  _atom_site_fract_x
  _atom_site_fract_y
  _atom_site_fract_z
  _atom_site_occupancy
  O   O1        1.0  0.5796087980270386  0.7740907669067383  0.6374114155769348  1.0000
  O   O2        1.0  0.5799847841262817  0.2607050836086273  0.12589208781719208  1.0000
  Ba  Ba1       1.0  0.06335324794054031  0.2904765605926514  0.6079633235931398  1.0000
  O   O3        1.0  0.0931970626115799  0.7741891741752625  0.12531246244907382  1.0000
  Ti  Ti1       1.0  0.5457302927970886  0.8073104023933412  0.0904557853937149  1.0000
