data_image438
_chemical_formula_structural       OBaOTi
_chemical_formula_sum              "O2 Ba1 Ti1"
_cell_length_a       3.3037848640046654
_cell_length_b       3.303849059238424
_cell_length_c       6.316661834716797
_cell_angle_alpha    74.88430153916252
_cell_angle_beta     74.86344805265371
_cell_angle_gamma    60.07597361663886

_space_group_name_H-M_alt    "P 1"
_space_group_IT_number       1

loop_
  _space_group_symop_operation_xyz
  'x, y, z'

loop_
  _atom_site_type_symbol
  _atom_site_label
  _atom_site_symmetry_multiplicity
  _atom_site_fract_x
  _atom_site_fract_y
  _atom_site_fract_z
  _atom_site_occupancy
  O   O1        1.0  0.19461449980735784  0.9956771731376648  0.6863314509391785  1.0000
  Ba  Ba1       1.0  0.4171142280101776  0.21837982535362244  0.01804986223578453  1.0000
  O   O2        1.0  0.6401005983352661  0.44130149483680725  0.350166916847229  1.0000
  Ti  Ti1       1.0  0.9176012873649597  0.7187917232513429  0.5185365676879883  1.0000
