data_image568
_chemical_formula_structural       OBaTiOTiOBa2O4
_chemical_formula_sum              "O7 Ba3 Ti2"
_cell_length_a       4.083929744466157
_cell_length_b       4.088077289395811
_cell_length_c       11.103496551513672
_cell_angle_alpha    100.52119157889099
_cell_angle_beta     100.43534280558093
_cell_angle_gamma    89.61684264428737

_space_group_name_H-M_alt    "P 1"
_space_group_IT_number       1

loop_
  _space_group_symop_operation_xyz
  'x, y, z'

loop_
  _atom_site_type_symbol
  _atom_site_label
  _atom_site_symmetry_multiplicity
  _atom_site_fract_x
  _atom_site_fract_y
  _atom_site_fract_z
  _atom_site_occupancy
  O   O1        1.0  0.6016162633895874  0.09280918538570404  0.16483691334724426  1.0000
  Ba  Ba1       1.0  0.38800764083862305  0.392818421125412  0.7199537754058838  1.0000
  Ti  Ti1       1.0  0.6253812313079834  0.6325421333312989  0.16439196467399597  1.0000
  O   O2        1.0  0.7906546592712402  0.28327167034149175  0.5439246892929077  1.0000
  Ti  Ti2       1.0  0.8146618008613586  0.8193598985671998  0.543983519077301  1.0000
  O   O3        1.0  0.5054544806480408  0.5103493332862854  0.9826697707176208  1.0000
  Ba  Ba2       1.0  0.023184845224022865  0.02832930907607079  0.989460825920105  1.0000
  Ba  Ba3       1.0  0.20757824182510376  0.21329349279403687  0.3539848029613495  1.0000
  O   O4        1.0  0.876300036907196  0.8805243968963623  0.7256852388381958  1.0000
  O   O5        1.0  0.08858341723680496  0.6056929230690002  0.1648004800081253  1.0000
  O   O6        1.0  0.6903730630874634  0.6943490505218507  0.35353097319602966  1.0000
  O   O7        1.0  0.27848219871520996  0.7952924966812134  0.5439184308052063  1.0000
