data_image503
_chemical_formula_structural       Ba2O4Ti
_chemical_formula_sum              "Ba2 O4 Ti1"
_cell_length_a       4.052452424876159
_cell_length_b       4.052070736348861
_cell_length_c       7.328902721405029
_cell_angle_alpha    106.05771435634014
_cell_angle_beta     106.02767685768055
_cell_angle_gamma    90.00181922699436

_space_group_name_H-M_alt    "P 1"
_space_group_IT_number       1

loop_
  _space_group_symop_operation_xyz
  'x, y, z'

loop_
  _atom_site_type_symbol
  _atom_site_label
  _atom_site_symmetry_multiplicity
  _atom_site_fract_x
  _atom_site_fract_y
  _atom_site_fract_z
  _atom_site_occupancy
  Ba  Ba1       1.0  0.9931807518005372  0.02936244197189808  0.4718223512172699  1.0000
  Ba  Ba2       1.0  0.27995455265045166  0.31628283858299255  0.04510749876499176  1.0000
  O   O1        1.0  0.13672497868537903  0.673272430896759  0.7583003640174866  1.0000
  O   O2        1.0  0.48865503072738653  0.5247988104820251  0.46259599924087524  1.0000
  O   O3        1.0  0.6367961764335632  0.17303499579429626  0.7583644390106201  1.0000
  O   O4        1.0  0.7842828631401062  0.8206530809402466  0.05363614112138751  1.0000
  Ti  Ti1       1.0  0.6366664171218872  0.672690749168396  0.7583543062210083  1.0000
