data_image563
_chemical_formula_structural       Ba4OTiO5BaO3
_chemical_formula_sum              "Ba5 O9 Ti1"
_cell_length_a       6.519439110529512
_cell_length_b       6.503104096544721
_cell_length_c       7.990994453430176
_cell_angle_alpha    91.57597299471438
_cell_angle_beta     89.5185083492739
_cell_angle_gamma    120.38066327969337

_space_group_name_H-M_alt    "P 1"
_space_group_IT_number       1

loop_
  _space_group_symop_operation_xyz
  'x, y, z'

loop_
  _atom_site_type_symbol
  _atom_site_label
  _atom_site_symmetry_multiplicity
  _atom_site_fract_x
  _atom_site_fract_y
  _atom_site_fract_z
  _atom_site_occupancy
  Ba  Ba1       1.0  0.0739925354719162  0.7732146382331848  0.8099680542945861  1.0000
  Ba  Ba2       1.0  0.07200714200735092  0.7319758534431458  0.2947606742382049  1.0000
  Ba  Ba3       1.0  0.40369170904159546  0.3908628523349762  0.6166659593582152  1.0000
  Ba  Ba4       1.0  0.7750324606895447  0.11674745380878447  0.9824818968772887  1.0000
  O   O1        1.0  0.4384006857872009  0.8612192273139954  0.5580878853797911  1.0000
  Ti  Ti1       1.0  0.7996338605880737  0.10809426754713058  0.4950839281082153  1.0000
  O   O2        1.0  0.42513325810432434  0.17491982877254486  0.8824156522750853  1.0000
  O   O3        1.0  0.655256986618042  0.2925873100757599  0.3642603158950805  1.0000
  O   O4        1.0  0.15424084663391113  0.5409566164016724  0.02083487622439861  1.0000
  O   O5        1.0  0.05595535412430761  0.18134132027626035  0.3627439737319946  1.0000
  O   O6        1.0  0.5537577867507935  0.7940583229064941  0.4071727097034454  1.0000
  Ba  Ba5       1.0  0.4225444793701172  0.4193449914455414  0.13404707610607144  1.0000
  O   O7        1.0  0.9176570773124695  0.05918681621551514  0.6864669322967528  1.0000
  O   O8        1.0  0.8186755776405334  0.7651234865188599  0.05554448813199996  1.0000
  O   O9        1.0  0.8587488532066345  0.43524584174156183  0.5603311657905578  1.0000
