data_image794
_chemical_formula_structural       BaTiO4TiO
_chemical_formula_sum              "Ba1 Ti2 O5"
_cell_length_a       3.96613680550333
_cell_length_b       4.331464602220639
_cell_length_c       6.384005069732666
_cell_angle_alpha    92.73691376807429
_cell_angle_beta     108.14425506169923
_cell_angle_gamma    90.0793625665215

_space_group_name_H-M_alt    "P 1"
_space_group_IT_number       1

loop_
  _space_group_symop_operation_xyz
  'x, y, z'

loop_
  _atom_site_type_symbol
  _atom_site_label
  _atom_site_symmetry_multiplicity
  _atom_site_fract_x
  _atom_site_fract_y
  _atom_site_fract_z
  _atom_site_occupancy
  Ba  Ba1       1.0  0.9252643585205078  0.5253796577453613  0.6889819502830506  1.0000
  Ti  Ti1       1.0  0.2636527717113495  0.9515030980110168  0.3657995462417603  1.0000
  O   O1        1.0  0.42476075887680054  0.024728132411837578  0.6881698966026307  1.0000
  O   O2        1.0  0.27318230271339417  0.5492275953292846  0.38438993692398077  1.0000
  O   O3        1.0  0.09973879903554916  0.020967932417988777  0.03867766633629799  1.0000
  O   O4        1.0  0.576836884021759  0.49957361817359924  0.9927187561988832  1.0000
  Ti  Ti2       1.0  0.5860642790794373  0.0979267507791519  0.01087419968098404  1.0000
  O   O5        1.0  0.7494978308677673  0.02799088694155216  0.3381571769714356  1.0000
