data_image339
_chemical_formula_structural       BaTi2OBaO2BaO4
_chemical_formula_sum              "Ba3 Ti2 O7"
_cell_length_a       3.9856601798562785
_cell_length_b       4.056837191909683
_cell_length_c       11.52548885345459
_cell_angle_alpha    100.05353565044412
_cell_angle_beta     89.86350801373942
_cell_angle_gamma    89.96332438739816

_space_group_name_H-M_alt    "P 1"
_space_group_IT_number       1

loop_
  _space_group_symop_operation_xyz
  'x, y, z'

loop_
  _atom_site_type_symbol
  _atom_site_label
  _atom_site_symmetry_multiplicity
  _atom_site_fract_x
  _atom_site_fract_y
  _atom_site_fract_z
  _atom_site_occupancy
  Ba  Ba1       1.0  0.668249785900116  0.18778087198734283  0.9826738834381104  1.0000
  Ti  Ti1       1.0  0.16794657707214355  0.7711938619613647  0.14738628268241882  1.0000
  Ti  Ti2       1.0  0.16879774630069733  0.9505296349525452  0.5096096396446228  1.0000
  O   O1        1.0  0.1674686074256897  0.4514639377593994  0.5109202861785889  1.0000
  Ba  Ba2       1.0  0.6683817505836487  0.5335880517959595  0.6758806109428406  1.0000
  O   O2        1.0  0.6681624054908752  0.9509432315826415  0.5105491876602173  1.0000
  O   O3        1.0  0.6676163673400879  0.7698329687118529  0.14742207527160645  1.0000
  Ba  Ba3       1.0  0.6687005758285522  0.36104604601860046  0.32858729362487793  1.0000
  O   O4        1.0  0.1685580611228943  0.8609067797660827  0.3289365768432617  1.0000
  O   O5        1.0  0.1680372953414917  0.03673041984438896  0.6815245747566223  1.0000
  O   O6        1.0  0.1677519530057907  0.6833111047744751  0.9768231511116028  1.0000
  O   O7        1.0  0.1680101752281189  0.2671507000923157  0.14740979671478271  1.0000
