data_image646
_chemical_formula_structural       Ba2TiBaOBa2TiOTiO6
_chemical_formula_sum              "Ba5 Ti3 O8"
_cell_length_a       7.963138702682073
_cell_length_b       7.6241106701257815
_cell_length_c       7.58111572265625
_cell_angle_alpha    120.03031644758802
_cell_angle_beta     99.83917692895413
_cell_angle_gamma    108.75488826762671

_space_group_name_H-M_alt    "P 1"
_space_group_IT_number       1

loop_
  _space_group_symop_operation_xyz
  'x, y, z'

loop_
  _atom_site_type_symbol
  _atom_site_label
  _atom_site_symmetry_multiplicity
  _atom_site_fract_x
  _atom_site_fract_y
  _atom_site_fract_z
  _atom_site_occupancy
  Ba  Ba1       1.0  0.392561674118042  0.5018037557601929  0.5965336561203003  1.0000
  Ba  Ba2       1.0  0.13109664618968964  0.7210283875465393  0.1632462441921234  1.0000
  Ti  Ti1       1.0  0.9040486216545105  0.04298844560980797  0.10151424258947375  1.0000
  Ba  Ba3       1.0  0.3030572235584259  0.22381019592285156  0.007613432593643665  1.0000
  O   O1        1.0  0.4186137020587921  0.6451278924942017  0.024950213730335236  1.0000
  Ba  Ba4       1.0  0.6900570392608643  0.1158272996544838  0.6880746483802795  1.0000
  Ba  Ba5       1.0  0.8663471937179565  0.5423614382743835  0.48754566907882696  1.0000
  Ti  Ti2       1.0  0.5507200956344604  0.9685498476028441  0.14162729680538177  1.0000
  O   O2        1.0  0.8121231198310852  0.05040280893445015  0.3356207311153412  1.0000
  Ti  Ti3       1.0  0.6745748519897461  0.7029390931129454  0.19820155203342432  1.0000
  O   O3        1.0  0.4767588675022125  0.16367632150650022  0.3313038945198059  1.0000
  O   O4        1.0  0.9969694018363953  0.8665162920951842  0.929306149482727  1.0000
  O   O5        1.0  0.5913377404212952  0.6488540768623352  0.396135538816452  1.0000
  O   O6        1.0  0.08422248065471649  0.3473570346832275  0.23451390862464902  1.0000
  O   O7        1.0  0.7590800523757935  0.49539697170257563  0.06695740669965744  1.0000
  O   O8        1.0  0.6468505859375  0.9627515077590941  0.9211593866348267  1.0000
