data_image551
_chemical_formula_structural       TiBaO4
_chemical_formula_sum              "Ti1 Ba1 O4"
_cell_length_a       3.8684991135629985
_cell_length_b       3.9486825101763507
_cell_length_c       6.555771827697754
_cell_angle_alpha    107.1315248622851
_cell_angle_beta     90.10317251256735
_cell_angle_gamma    90.00302144727277

_space_group_name_H-M_alt    "P 1"
_space_group_IT_number       1

loop_
  _space_group_symop_operation_xyz
  'x, y, z'

loop_
  _atom_site_type_symbol
  _atom_site_label
  _atom_site_symmetry_multiplicity
  _atom_site_fract_x
  _atom_site_fract_y
  _atom_site_fract_z
  _atom_site_occupancy
  Ti  Ti1       1.0  0.497443974018097  0.9979584217071532  0.5598368644714355  1.0000
  Ba  Ba1       1.0  0.9980381131172181  0.6940831542015076  0.9559199213981627  1.0000
  O   O1        1.0  0.4976413249969483  0.5232391357421875  0.6116580963134766  1.0000
  O   O2        1.0  0.4976073503494263  0.1659386307001114  0.9008389711380004  1.0000
  O   O3        1.0  0.9976955056190492  0.024943033233284947  0.6178779006004333  1.0000
  O   O4        1.0  0.49787497520446783  0.8561875820159912  0.27553248405456543  1.0000
