data_image554
_chemical_formula_structural       TiBa2O4Ti
_chemical_formula_sum              "Ti2 Ba2 O4"
_cell_length_a       3.8019020661033878
_cell_length_b       3.799278939535258
_cell_length_c       10.837785720825195
_cell_angle_alpha    89.97236756017736
_cell_angle_beta     90.00423039163698
_cell_angle_gamma    90.01958465586173

_space_group_name_H-M_alt    "P 1"
_space_group_IT_number       1

loop_
  _space_group_symop_operation_xyz
  'x, y, z'

loop_
  _atom_site_type_symbol
  _atom_site_label
  _atom_site_symmetry_multiplicity
  _atom_site_fract_x
  _atom_site_fract_y
  _atom_site_fract_z
  _atom_site_occupancy
  Ti  Ti1       1.0  0.09446422755718231  0.22160454094409943  0.7153880000114441  1.0000
  Ba  Ba1       1.0  0.09359809756278992  0.22063301503658295  0.0863230749964714  1.0000
  Ba  Ba2       1.0  0.594937801361084  0.7223917841911316  0.47000664472579956  1.0000
  O   O1        1.0  0.5955338478088379  0.721553385257721  0.017688801512122154  1.0000
  O   O2        1.0  0.0950089618563652  0.721962034702301  0.7774452567100525  1.0000
  O   O3        1.0  0.5949912667274475  0.22134239971637726  0.7777014374732971  1.0000
  O   O4        1.0  0.09503646194934845  0.22199955582618713  0.5385820865631104  1.0000
  Ti  Ti2       1.0  0.5949552655220032  0.7215876579284667  0.8423798680305481  1.0000
