data_image472
_chemical_formula_structural       TiBa2TiO6
_chemical_formula_sum              "Ti2 Ba2 O6"
_cell_length_a       4.184654873595626
_cell_length_b       5.668162327256047
_cell_length_c       5.668773651123047
_cell_angle_alpha    90.03291035381493
_cell_angle_beta     90.0158895268345
_cell_angle_gamma    90.01148405321844

_space_group_name_H-M_alt    "P 1"
_space_group_IT_number       1

loop_
  _space_group_symop_operation_xyz
  'x, y, z'

loop_
  _atom_site_type_symbol
  _atom_site_label
  _atom_site_symmetry_multiplicity
  _atom_site_fract_x
  _atom_site_fract_y
  _atom_site_fract_z
  _atom_site_occupancy
  Ti  Ti1       1.0  0.1587831676006317  0.12025448679924013  0.324186235666275  1.0000
  Ba  Ba1       1.0  0.6754559874534607  0.6209733486175537  0.32377877831459045  1.0000
  Ba  Ba2       1.0  0.6755595803260803  0.12087824940681459  0.8242166638374329  1.0000
  Ti  Ti2       1.0  0.1584605723619461  0.6207553744316101  0.8242492079734802  1.0000
  O   O1        1.0  0.206709623336792  0.8711416721343994  0.5734298825263977  1.0000
  O   O2        1.0  0.20724645256996155  0.37101244926452637  0.07332977652549744  1.0000
  O   O3        1.0  0.2066643238067627  0.8710817098617554  0.07373785972595215  1.0000
  O   O4        1.0  0.20743581652641296  0.370752900838852  0.5738989114761353  1.0000
  O   O5        1.0  0.7272205352783203  0.12091098725795747  0.32385414838790894  1.0000
  O   O6        1.0  0.7272775769233704  0.6205978989601135  0.823829710483551  1.0000
