data_image665
_chemical_formula_structural       Ba3O
_chemical_formula_sum              "Ba3 O1"
_cell_length_a       4.137846704025029
_cell_length_b       4.136712849948368
_cell_length_c       11.176313400268555
_cell_angle_alpha    79.36679080464994
_cell_angle_beta     79.37767305237412
_cell_angle_gamma    59.93582125419988

_space_group_name_H-M_alt    "P 1"
_space_group_IT_number       1

loop_
  _space_group_symop_operation_xyz
  'x, y, z'

loop_
  _atom_site_type_symbol
  _atom_site_label
  _atom_site_symmetry_multiplicity
  _atom_site_fract_x
  _atom_site_fract_y
  _atom_site_fract_z
  _atom_site_occupancy
  Ba  Ba1       1.0  0.9560293555259705  0.11369819194078445  0.6964063048362732  1.0000
  Ba  Ba2       1.0  0.7433276176452637  0.9017454385757446  0.33161187171936035  1.0000
  Ba  Ba3       1.0  0.19801269471645358  0.356762945652008  0.9669497013092041  1.0000
  O   O1        1.0  0.5760511159896851  0.7344412207603455  0.8345820307731628  1.0000
