data_image295
_chemical_formula_structural       BaOTiO2
_chemical_formula_sum              "Ba1 O3 Ti1"
_cell_length_a       3.9974938276004943
_cell_length_b       4.108679496540479
_cell_length_c       4.136514663696289
_cell_angle_alpha    90.41992939012152
_cell_angle_beta     89.96377518415487
_cell_angle_gamma    90.01528163801473

_space_group_name_H-M_alt    "P 1"
_space_group_IT_number       1

loop_
  _space_group_symop_operation_xyz
  'x, y, z'

loop_
  _atom_site_type_symbol
  _atom_site_label
  _atom_site_symmetry_multiplicity
  _atom_site_fract_x
  _atom_site_fract_y
  _atom_site_fract_z
  _atom_site_occupancy
  Ba  Ba1       1.0  0.8009853959083557  0.14884231984615326  0.7947097420692444  1.0000
  O   O1        1.0  0.3003863990306854  0.6651927828788757  0.757140576839447  1.0000
  Ti  Ti1       1.0  0.3002423346042633  0.6299439668655396  0.3128862977027893  1.0000
  O   O2        1.0  0.7999046444892883  0.6718730330467224  0.2699604332447052  1.0000
  O   O3        1.0  0.2998596429824829  0.18164180219173431  0.27490487694740295  1.0000
