data_image356
_chemical_formula_structural       OBaTiO3TiOTiOTiO
_chemical_formula_sum              "O7 Ba1 Ti4"
_cell_length_a       3.886145914524827
_cell_length_b       5.4048245755556765
_cell_length_c       9.718969345092773
_cell_angle_alpha    112.40613660485164
_cell_angle_beta     100.04995004048246
_cell_angle_gamma    73.75135149292824

_space_group_name_H-M_alt    "P 1"
_space_group_IT_number       1

loop_
  _space_group_symop_operation_xyz
  'x, y, z'

loop_
  _atom_site_type_symbol
  _atom_site_label
  _atom_site_symmetry_multiplicity
  _atom_site_fract_x
  _atom_site_fract_y
  _atom_site_fract_z
  _atom_site_occupancy
  O   O1        1.0  0.30637750029563904  0.7557749152183533  0.06684378534555435  1.0000
  Ba  Ba1       1.0  0.9942538738250731  0.25711143016815186  0.4632611572742462  1.0000
  Ti  Ti1       1.0  0.5235759019851685  0.8859013915061951  0.6789015531539917  1.0000
  O   O2        1.0  0.36201685667037964  0.2604806423187256  0.7378478050231934  1.0000
  O   O3        1.0  0.6812605261802673  0.7542663216590881  0.8604776859283447  1.0000
  O   O4        1.0  0.6208796501159668  0.2524382472038269  0.18976213037967682  1.0000
  Ti  Ti2       1.0  0.7644100189208984  0.8765977621078491  0.08413626253604889  1.0000
  O   O5        1.0  0.06864508241415025  0.784193217754364  0.6790167093276978  1.0000
  Ti  Ti3       1.0  0.4641175270080566  0.6278870701789856  0.248199850320816  1.0000
  O   O6        1.0  0.9175227284431456  0.7304854393005371  0.24967887997627256  1.0000
  Ti  Ti4       1.0  0.2230396419763565  0.6338208317756653  0.8428869247436523  1.0000
  O   O7        1.0  0.4926943480968475  0.7560076117515564  0.46398472785949707  1.0000
