data_image455
_chemical_formula_structural       TiBaOBaO3
_chemical_formula_sum              "Ti1 Ba2 O4"
_cell_length_a       4.0221357088474665
_cell_length_b       4.023945943087398
_cell_length_c       7.342073440551758
_cell_angle_alpha    106.1417249142927
_cell_angle_beta     106.02871364881935
_cell_angle_gamma    90.15397559035051

_space_group_name_H-M_alt    "P 1"
_space_group_IT_number       1

loop_
  _space_group_symop_operation_xyz
  'x, y, z'

loop_
  _atom_site_type_symbol
  _atom_site_label
  _atom_site_symmetry_multiplicity
  _atom_site_fract_x
  _atom_site_fract_y
  _atom_site_fract_z
  _atom_site_occupancy
  Ti  Ti1       1.0  0.8974640965461732  0.3476830422878266  0.34392234683036804  1.0000
  Ba  Ba1       1.0  0.25345614552497864  0.703871786594391  0.05696502327919009  1.0000
  O   O1        1.0  0.7493051886558534  0.19966793060302737  0.048212092369794846  1.0000
  Ba  Ba2       1.0  0.5411754250526428  0.9915015101432801  0.6303627490997314  1.0000
  O   O2        1.0  0.8974125981330873  0.8476142287254333  0.34364011883735657  1.0000
  O   O3        1.0  0.3975155949592591  0.3475609421730042  0.34399691224098206  1.0000
  O   O4        1.0  0.04565954208374025  0.49581617116928106  0.639541745185852  1.0000
