data_image424
_chemical_formula_structural       Ba2TiO3
_chemical_formula_sum              "Ba2 Ti1 O3"
_cell_length_a       3.9905156152697785
_cell_length_b       4.0456238812994485
_cell_length_c       7.3838043212890625
_cell_angle_alpha    105.84305613116577
_cell_angle_beta     105.65246690463754
_cell_angle_gamma    89.98771481258811

_space_group_name_H-M_alt    "P 1"
_space_group_IT_number       1

loop_
  _space_group_symop_operation_xyz
  'x, y, z'

loop_
  _atom_site_type_symbol
  _atom_site_label
  _atom_site_symmetry_multiplicity
  _atom_site_fract_x
  _atom_site_fract_y
  _atom_site_fract_z
  _atom_site_occupancy
  Ba  Ba1       1.0  0.48358997702598566  0.8944151997566222  0.654007613658905  1.0000
  Ba  Ba2       1.0  0.19190551340579987  0.6018981337547301  0.07035899162292479  1.0000
  Ti  Ti1       1.0  0.8377570509910583  0.24792794883251187  0.36202433705329895  1.0000
  O   O1        1.0  0.9833218455314635  0.39383563399314875  0.6535614132881165  1.0000
  O   O2        1.0  0.692035436630249  0.10249850153923033  0.071472130715847  1.0000
  O   O3        1.0  0.8381640315055847  0.7481937408447265  0.36244454979896545  1.0000
