data_image115
_chemical_formula_structural       OBaO2BaTiBaOTiO3
_chemical_formula_sum              "O7 Ba3 Ti2"
_cell_length_a       4.068684469037477
_cell_length_b       4.058912815046669
_cell_length_c       11.073750495910645
_cell_angle_alpha    100.59297720429208
_cell_angle_beta     100.54629949362746
_cell_angle_gamma    90.04045759454787

_space_group_name_H-M_alt    "P 1"
_space_group_IT_number       1

loop_
  _space_group_symop_operation_xyz
  'x, y, z'

loop_
  _atom_site_type_symbol
  _atom_site_label
  _atom_site_symmetry_multiplicity
  _atom_site_fract_x
  _atom_site_fract_y
  _atom_site_fract_z
  _atom_site_occupancy
  O   O1        1.0  0.24644368886947632  0.3784176707267761  0.21472260355949402  1.0000
  Ba  Ba1       1.0  0.9510728716850281  0.5986998677253723  0.6599119901657104  1.0000
  O   O2        1.0  0.8299350738525391  0.46942487359046936  0.3979562819004059  1.0000
  O   O3        1.0  0.5498306155204773  0.7059938311576843  0.8374513387680054  1.0000
  Ba  Ba2       1.0  0.1322125643491745  0.7880495190620422  0.02595755085349083  1.0000
  Ti  Ti1       1.0  0.5258110165596008  0.17324773967266083  0.8357260227203369  1.0000
  Ba  Ba3       1.0  0.3151768743991852  0.9759013056755066  0.3919414281845093  1.0000
  O   O4        1.0  0.7367693185806274  0.8717723488807678  0.21464228630065918  1.0000
  Ti  Ti2       1.0  0.7121841311454773  0.4030930995941162  0.21659061312675476  1.0000
  O   O5        1.0  0.6458386778831482  0.2885252833366394  0.02614053525030613  1.0000
  O   O6        1.0  0.4610815942287445  0.10769504308700562  0.6550469994544983  1.0000
  O   O7        1.0  0.06061301380395889  0.19786646962165833  0.8373421430587769  1.0000
