data_image596
_chemical_formula_structural       OBaTi2BaO2BaO4
_chemical_formula_sum              "O7 Ba3 Ti2"
_cell_length_a       4.058825840664276
_cell_length_b       4.059167373784119
_cell_length_c       11.068325996398926
_cell_angle_alpha    79.78753822660128
_cell_angle_beta     79.77876815574704
_cell_angle_gamma    90.10467496042386

_space_group_name_H-M_alt    "P 1"
_space_group_IT_number       1

loop_
  _space_group_symop_operation_xyz
  'x, y, z'

loop_
  _atom_site_type_symbol
  _atom_site_label
  _atom_site_symmetry_multiplicity
  _atom_site_fract_x
  _atom_site_fract_y
  _atom_site_fract_z
  _atom_site_occupancy
  O   O1        1.0  0.1582976132631302  0.6233853697776794  0.17423495650291443  1.0000
  Ba  Ba1       1.0  0.4710772633552551  0.9364907145500183  0.5392347574234009  1.0000
  Ti  Ti1       1.0  0.04559802636504173  0.5117637515068055  0.36381301283836365  1.0000
  Ti  Ti2       1.0  0.2695385813713074  0.736559271812439  0.9840337634086609  1.0000
  Ba  Ba2       1.0  0.8454088568687439  0.3109367787837982  0.8083665370941162  1.0000
  O   O2        1.0  0.06937898695468903  0.041496846824884415  0.3639689087867737  1.0000
  O   O3        1.0  0.5772800445556641  0.5343847274780275  0.36388760805130005  1.0000
  Ba  Ba3       1.0  0.6578918695449829  0.12409344315528871  0.174188032746315  1.0000
  O   O4        1.0  0.24800144135951996  0.2048643082380295  0.9840309619903564  1.0000
  O   O5        1.0  0.7395856380462646  0.7132399082183839  0.9838136434555054  1.0000
  O   O6        1.0  0.33540183305740356  0.8012191057205201  0.8027085661888123  1.0000
  O   O7        1.0  0.9818719625473022  0.4461649656295777  0.5443565845489502  1.0000
