data_image428
_chemical_formula_structural       BaTiBa3TiOTi2O11
_chemical_formula_sum              "Ba4 Ti4 O12"
_cell_length_a       6.524365073669614
_cell_length_b       8.105623210658802
_cell_length_c       7.491931438446045
_cell_angle_alpha    101.76534500994221
_cell_angle_beta     82.17154773010463
_cell_angle_gamma    84.49679573327556

_space_group_name_H-M_alt    "P 1"
_space_group_IT_number       1

loop_
  _space_group_symop_operation_xyz
  'x, y, z'

loop_
  _atom_site_type_symbol
  _atom_site_label
  _atom_site_symmetry_multiplicity
  _atom_site_fract_x
  _atom_site_fract_y
  _atom_site_fract_z
  _atom_site_occupancy
  Ba  Ba1       1.0  0.5957963466644287  0.23540595173835754  0.8820465803146361  1.0000
  Ti  Ti1       1.0  0.46342790126800537  0.3370853066444397  0.4447467625141143  1.0000
  Ba  Ba2       1.0  0.2344711422920227  0.9071196913719177  0.6003785133361816  1.0000
  Ba  Ba3       1.0  0.9697715044021606  0.5660921931266785  0.20386420190334323  1.0000
  Ba  Ba4       1.0  0.8156863451004028  0.023681499063968662  0.30470171570777893  1.0000
  Ti  Ti2       1.0  0.7712712287902832  0.7913810610771179  0.7995871305465698  1.0000
  O   O1        1.0  0.5019403696060181  0.23197485506534576  0.2190703451633453  1.0000
  Ti  Ti3       1.0  0.9507842659950256  0.4107595086097718  0.607322096824646  1.0000
  Ti  Ti4       1.0  0.4064779579639435  0.7462381720542908  0.08092915266752244  1.0000
  O   O2        1.0  0.1964036226272583  0.47133567929267883  0.49274411797523493  1.0000
  O   O3        1.0  0.8528182506561279  0.5634533762931825  0.8339764475822448  1.0000
  O   O4        1.0  0.6119217872619629  0.7596219778060913  0.2231916636228561  1.0000
  O   O5        1.0  0.9704863429069519  0.20272739231586456  0.6437807679176331  1.0000
  O   O6        1.0  0.8552005290985107  0.791591465473175  0.5619878768920898  1.0000
  O   O7        1.0  0.48493292927742004  0.8497604727745056  0.8684112429618834  1.0000
  O   O8        1.0  0.8958578109741211  0.9504156708717346  0.9240458011627196  1.0000
  O   O9        1.0  0.46851199865341187  0.16686923801898956  0.5656644105911255  1.0000
  O   O10       1.0  0.17173270881175995  0.835569441318512  0.24393616616725922  1.0000
  O   O11       1.0  0.7377730011940002  0.40998080372810364  0.4631751179695129  1.0000
  O   O12       1.0  0.3578590154647827  0.532612144947052  0.9985909461975097  1.0000
