data_image360
_chemical_formula_structural       OTiBaTiBaOTiOTiO3BaTiO4
_chemical_formula_sum              "O10 Ti5 Ba3"
_cell_length_a       4.109342368767008
_cell_length_b       6.768360050721348
_cell_length_c       10.65162181854248
_cell_angle_alpha    115.08157064606746
_cell_angle_beta     101.00704262236493
_cell_angle_gamma    89.93620843559404

_space_group_name_H-M_alt    "P 1"
_space_group_IT_number       1

loop_
  _space_group_symop_operation_xyz
  'x, y, z'

loop_
  _atom_site_type_symbol
  _atom_site_label
  _atom_site_symmetry_multiplicity
  _atom_site_fract_x
  _atom_site_fract_y
  _atom_site_fract_z
  _atom_site_occupancy
  O   O1        1.0  0.2720210552215576  0.06025588139891625  0.27508342266082764  1.0000
  Ti  Ti1       1.0  0.7713127136230469  0.05524403974413872  0.2726542055606842  1.0000
  Ba  Ba1       1.0  0.21143586933612826  0.6155291199684144  0.15314914286136627  1.0000
  Ti  Ti2       1.0  0.8339272141456604  0.5755002498626709  0.400993824005127  1.0000
  Ba  Ba2       1.0  0.4409174621105194  0.006117496639490128  0.6136501431465149  1.0000
  O   O2        1.0  0.8713510632514954  0.3096250295639038  0.4740056395530701  1.0000
  Ti  Ti3       1.0  0.9734364748001099  0.5447530746459961  0.6773121953010559  1.0000
  O   O3        1.0  0.6714181303977966  0.8242716789245607  0.07102164626121521  1.0000
  Ti  Ti4       1.0  0.3633572459220887  0.33991909027099615  0.45693054795265203  1.0000
  O   O4        1.0  0.07723682373762132  0.6166981458663942  0.8799306750297547  1.0000
  O   O5        1.0  0.33791208267211914  0.5893072485923767  0.4079276025295258  1.0000
  O   O6        1.0  0.9470600485801698  0.7857969999313356  0.6273407340049744  1.0000
  Ba  Ba3       1.0  0.1380815953016281  0.05983391776680947  0.004574854392558336  1.0000
  Ti  Ti5       1.0  0.5767114758491516  0.5618124008178712  0.8819103837013246  1.0000
  O   O7        1.0  0.8053638339042665  0.8149812817573548  0.3429917097091675  1.0000
  O   O8        1.0  0.5881686210632324  0.30690211057662964  0.9077288508415223  1.0000
  O   O9        1.0  0.4706600606441498  0.47777202725410467  0.6708213686943054  1.0000
  O   O10       1.0  0.7404708862304688  0.313899040222168  0.2119497656822205  1.0000
