data_image124
_chemical_formula_structural       TiO3Ba
_chemical_formula_sum              "Ti1 O3 Ba1"
_cell_length_a       3.9730952533815858
_cell_length_b       4.116388879710519
_cell_length_c       4.11970853805542
_cell_angle_alpha    90.38428943073124
_cell_angle_beta     90.03019194070713
_cell_angle_gamma    89.99757095713753

_space_group_name_H-M_alt    "P 1"
_space_group_IT_number       1

loop_
  _space_group_symop_operation_xyz
  'x, y, z'

loop_
  _atom_site_type_symbol
  _atom_site_label
  _atom_site_symmetry_multiplicity
  _atom_site_fract_x
  _atom_site_fract_y
  _atom_site_fract_z
  _atom_site_occupancy
  Ti  Ti1       1.0  0.3283035159111023  0.8741024732589722  0.8455264568328857  1.0000
  O   O1        1.0  0.829214334487915  0.8333444595336914  0.8871951699256897  1.0000
  O   O2        1.0  0.3292950689792633  0.8404698967933655  0.3985217213630676  1.0000
  O   O3        1.0  0.3292514383792877  0.32192814350128174  0.8819757103919983  1.0000
  Ba  Ba1       1.0  0.8296233415603638  0.3559012711048126  0.3650112450122833  1.0000
