data_image748
_chemical_formula_structural       TiBa2TiOBaOBaO5
_chemical_formula_sum              "Ti2 Ba4 O7"
_cell_length_a       6.83974034987776
_cell_length_b       6.428831376712787
_cell_length_c       7.421534538269043
_cell_angle_alpha    63.35758755525361
_cell_angle_beta     66.59788244631595
_cell_angle_gamma    61.592311914308446

_space_group_name_H-M_alt    "P 1"
_space_group_IT_number       1

loop_
  _space_group_symop_operation_xyz
  'x, y, z'

loop_
  _atom_site_type_symbol
  _atom_site_label
  _atom_site_symmetry_multiplicity
  _atom_site_fract_x
  _atom_site_fract_y
  _atom_site_fract_z
  _atom_site_occupancy
  Ti  Ti1       1.0  0.5966987609863281  0.1571078896522522  0.26927536725997925  1.0000
  Ba  Ba1       1.0  0.23390209674835205  0.866540253162384  0.24480460584163663  1.0000
  Ba  Ba2       1.0  0.8766942024230957  0.5406176447868347  0.17466276884078985  1.0000
  Ti  Ti2       1.0  0.7978950142860413  0.8660698533058167  0.6632496714591981  1.0000
  O   O1        1.0  0.8964489698410034  0.13222067058086395  0.548178493976593  1.0000
  Ba  Ba3       1.0  0.5163610577583313  0.4300902187824249  0.7588192224502562  1.0000
  O   O2        1.0  0.6993359327316284  0.8262327313423157  0.46796599030494684  1.0000
  Ba  Ba4       1.0  0.159481942653656  0.18667536973953247  0.6885858774185181  1.0000
  O   O3        1.0  0.3357975482940674  0.24425221979618073  0.18299083411693576  1.0000
  O   O4        1.0  0.4953477084636688  0.4020273983478546  0.3876888453960419  1.0000
  O   O5        1.0  0.5407139658927916  0.9035088419914246  0.8773354887962341  1.0000
  O   O6        1.0  0.05942859500646591  0.6053152084350586  0.7488272786140441  1.0000
  O   O7        1.0  0.8557977080345154  0.1536697894334793  0.05704271048307418  1.0000
