data_image629
_chemical_formula_structural       BaTiO2
_chemical_formula_sum              "Ba1 Ti1 O2"
_cell_length_a       3.2762866540973365
_cell_length_b       3.2778384503112825
_cell_length_c       6.471560478210449
_cell_angle_alpha    75.32263536227013
_cell_angle_beta     75.31778686415345
_cell_angle_gamma    60.02214100498535

_space_group_name_H-M_alt    "P 1"
_space_group_IT_number       1

loop_
  _space_group_symop_operation_xyz
  'x, y, z'

loop_
  _atom_site_type_symbol
  _atom_site_label
  _atom_site_symmetry_multiplicity
  _atom_site_fract_x
  _atom_site_fract_y
  _atom_site_fract_z
  _atom_site_occupancy
  Ba  Ba1       1.0  0.2116498500108719  0.15577644109725952  0.6232876181602478  1.0000
  Ti  Ti1       1.0  0.38626354932785034  0.3311349153518677  0.10234027355909346  1.0000
  O   O1        1.0  0.9972328543663025  0.9408562183380126  0.27017641067504883  1.0000
  O   O2        1.0  0.7729679346084595  0.7165867686271667  0.9414155483245848  1.0000
