data_image604
_chemical_formula_structural       OBa3
_chemical_formula_sum              "O1 Ba3"
_cell_length_a       4.128755037046745
_cell_length_b       4.127920991284373
_cell_length_c       11.220752716064453
_cell_angle_alpha    79.44882177810697
_cell_angle_beta     79.4535008844399
_cell_angle_gamma    59.997616583283715

_space_group_name_H-M_alt    "P 1"
_space_group_IT_number       1

loop_
  _space_group_symop_operation_xyz
  'x, y, z'

loop_
  _atom_site_type_symbol
  _atom_site_label
  _atom_site_symmetry_multiplicity
  _atom_site_fract_x
  _atom_site_fract_y
  _atom_site_fract_z
  _atom_site_occupancy
  O   O1        1.0  0.21378107368946064  0.8567183613777162  0.4160175323486328  1.0000
  Ba  Ba1       1.0  0.04696440324187279  0.689274787902832  0.9187573194503784  1.0000
  Ba  Ba2       1.0  0.8347863554954529  0.47766995429992676  0.5541235208511353  1.0000
  Ba  Ba3       1.0  0.5916324257850647  0.2343500554561615  0.28336837887763977  1.0000
