data_image3
_chemical_formula_structural       Ba2OTiO2
_chemical_formula_sum              "Ba2 O3 Ti1"
_cell_length_a       3.9581717451071046
_cell_length_b       3.9607768884934367
_cell_length_c       9.180130004882812
_cell_angle_alpha    102.4648785259463
_cell_angle_beta     102.45102082113566
_cell_angle_gamma    89.99168346820261

_space_group_name_H-M_alt    "P 1"
_space_group_IT_number       1

loop_
  _space_group_symop_operation_xyz
  'x, y, z'

loop_
  _atom_site_type_symbol
  _atom_site_label
  _atom_site_symmetry_multiplicity
  _atom_site_fract_x
  _atom_site_fract_y
  _atom_site_fract_z
  _atom_site_occupancy
  Ba  Ba1       1.0  0.7363966703414916  0.3127836585044861  0.24948768317699432  1.0000
  Ba  Ba2       1.0  0.9811949133872985  0.557522714138031  0.736200213432312  1.0000
  O   O1        1.0  0.8421206474304198  0.9197361469268799  0.4591047763824463  1.0000
  Ti  Ti1       1.0  0.3602685630321502  0.9362262487411498  0.49260321259498596  1.0000
  O   O2        1.0  0.3433824777603149  0.4184048175811767  0.45906132459640503  1.0000
  O   O3        1.0  0.4633267223834991  0.039946429431438446  0.7013570070266723  1.0000
