data_image534
_chemical_formula_structural       OTiBaO3BaTiO
_chemical_formula_sum              "O5 Ti2 Ba2"
_cell_length_a       4.085712136199738
_cell_length_b       6.006634344464064
_cell_length_c       6.4567389488220215
_cell_angle_alpha    105.48048983952032
_cell_angle_beta     89.94912442336776
_cell_angle_gamma    109.74405193303265

_space_group_name_H-M_alt    "P 1"
_space_group_IT_number       1

loop_
  _space_group_symop_operation_xyz
  'x, y, z'

loop_
  _atom_site_type_symbol
  _atom_site_label
  _atom_site_symmetry_multiplicity
  _atom_site_fract_x
  _atom_site_fract_y
  _atom_site_fract_z
  _atom_site_occupancy
  O   O1        1.0  0.5055773854255676  0.22055624425411222  0.2561488151550293  1.0000
  Ti  Ti1       1.0  0.3241047263145446  0.8597586750984191  0.09773196280002594  1.0000
  Ba  Ba1       1.0  0.5685329437255859  0.3476581275463104  0.8735786080360413  1.0000
  O   O2        1.0  0.3155639469623566  0.8432922363281251  0.8056396245956421  1.0000
  O   O3        1.0  0.16509976983070374  0.5411188006401062  0.193394273519516  1.0000
  O   O4        1.0  0.825126588344574  0.8636764883995056  0.13400784134864807  1.0000
  Ba  Ba2       1.0  0.7613111734390259  0.7340885400772095  0.514758825302124  1.0000
  Ti  Ti2       1.0  0.006585702300071716  0.2237788289785385  0.29116758704185486  1.0000
  O   O5        1.0  0.01425366010516882  0.23956036567687988  0.5823346376419067  1.0000
