data_image296
_chemical_formula_structural       OTiBa3OTiBa2O2TiO6
_chemical_formula_sum              "O10 Ti3 Ba5"
_cell_length_a       5.792721109302738
_cell_length_b       5.7989025762091195
_cell_length_c       10.101520538330078
_cell_angle_alpha    107.06290048533127
_cell_angle_beta     106.1541025668323
_cell_angle_gamma    90.32221004886253

_space_group_name_H-M_alt    "P 1"
_space_group_IT_number       1

loop_
  _space_group_symop_operation_xyz
  'x, y, z'

loop_
  _atom_site_type_symbol
  _atom_site_label
  _atom_site_symmetry_multiplicity
  _atom_site_fract_x
  _atom_site_fract_y
  _atom_site_fract_z
  _atom_site_occupancy
  O   O1        1.0  0.370388388633728  0.3814822435379028  0.6255657076835632  1.0000
  Ti  Ti1       1.0  0.36424720287323  0.41442987322807306  0.17741979658603668  1.0000
  Ba  Ba1       1.0  0.004450017120689152  0.5174003839492798  0.4224236011505127  1.0000
  Ba  Ba2       1.0  0.8492478132247925  0.8917595744132996  0.13877025246620184  1.0000
  Ba  Ba3       1.0  0.5061693787574768  0.020129207521677014  0.4225332736968994  1.0000
  O   O2        1.0  0.7296214699745178  0.7226358652114868  0.8489573001861572  1.0000
  Ti  Ti2       1.0  0.11880187690258026  0.1150001212954521  0.6326386332511902  1.0000
  Ba  Ba4       1.0  0.22541667520999908  0.7579842805862426  0.8678804039955139  1.0000
  Ba  Ba5       1.0  0.7104797959327698  0.2442007213830948  0.8651700019836426  1.0000
  O   O3        1.0  0.14690209925174713  0.27898511290550226  0.8206512331962585  1.0000
  O   O4        1.0  0.038043126463890076  0.32857319712638855  0.14232605695724487  1.0000
  Ti  Ti3       1.0  0.5951339602470398  0.651115357875824  0.6439462900161743  1.0000
  O   O5        1.0  0.3567346930503845  0.8826714158058167  0.6360431909561157  1.0000
  O   O6        1.0  0.41516557335853577  0.7055379152297974  0.14344632625579834  1.0000
  O   O7        1.0  0.5105082988739014  0.16724228858947754  0.08198132365942004  1.0000
  O   O8        1.0  0.49860784411430364  0.484295904636383  0.3823021352291107  1.0000
  O   O9        1.0  0.9887797236442567  0.03494372218847274  0.4200914204120636  1.0000
  O   O10       1.0  0.8485473990440369  0.8577643036842346  0.6252224445343018  1.0000
