data_image559
_chemical_formula_structural       OBa2O4Ti2O3BaTiO2
_chemical_formula_sum              "O10 Ba3 Ti3"
_cell_length_a       3.9623775017298764
_cell_length_b       3.9666288657442337
_cell_length_c       15.26649284362793
_cell_angle_alpha    97.4162764052415
_cell_angle_beta     97.41434391686836
_cell_angle_gamma    90.01498097771393

_space_group_name_H-M_alt    "P 1"
_space_group_IT_number       1

loop_
  _space_group_symop_operation_xyz
  'x, y, z'

loop_
  _atom_site_type_symbol
  _atom_site_label
  _atom_site_symmetry_multiplicity
  _atom_site_fract_x
  _atom_site_fract_y
  _atom_site_fract_z
  _atom_site_occupancy
  O   O1        1.0  0.9599229097366332  0.28856813907623285  0.9382023811340333  1.0000
  Ba  Ba1       1.0  0.72511225938797  0.05475106090307235  0.46886095404624945  1.0000
  Ba  Ba2       1.0  0.8645331263542174  0.19356243312358853  0.7478477358818055  1.0000
  O   O2        1.0  0.025835884734988213  0.8547540903091431  0.07056488841772081  1.0000
  O   O3        1.0  0.36644431948661804  0.6954008936882018  0.753032684326172  1.0000
  O   O4        1.0  0.29885613918304443  0.1287376284599304  0.61723130941391  1.0000
  O   O5        1.0  0.23202307522296903  0.5619558691978455  0.4837602376937867  1.0000
  Ti  Ti1       1.0  0.2971412241458893  0.6264631152153014  0.6138175129890443  1.0000
  Ti  Ti2       1.0  0.031468287110328674  0.3601740896701812  0.0799982249736786  1.0000
  O   O6        1.0  0.661300778388977  0.49182689189910883  0.3417885899543763  1.0000
  O   O7        1.0  0.1614704132080078  0.9918710589408875  0.34154573082923895  1.0000
  O   O8        1.0  0.5259377956390381  0.35459104180335993  0.07035141438245775  1.0000
  Ba  Ba3       1.0  0.4633923172950744  0.7912049293518066  0.9448821544647218  1.0000
  Ti  Ti3       1.0  0.15231385827064514  0.48266354203224177  0.32440990209579473  1.0000
  O   O9        1.0  0.7988094091415405  0.6288061141967772  0.617613196372986  1.0000
  O   O10       1.0  0.09386494755744934  0.4229688346385955  0.20551590621471408  1.0000
