data_image783
_chemical_formula_structural       BaO2TiBa2OTiO4
_chemical_formula_sum              "Ba3 O7 Ti2"
_cell_length_a       4.07487514027788
_cell_length_b       4.077668676111685
_cell_length_c       11.09526538848877
_cell_angle_alpha    100.61713473940688
_cell_angle_beta     100.55556197955184
_cell_angle_gamma    89.8304841138096

_space_group_name_H-M_alt    "P 1"
_space_group_IT_number       1

loop_
  _space_group_symop_operation_xyz
  'x, y, z'

loop_
  _atom_site_type_symbol
  _atom_site_label
  _atom_site_symmetry_multiplicity
  _atom_site_fract_x
  _atom_site_fract_y
  _atom_site_fract_z
  _atom_site_occupancy
  Ba  Ba1       1.0  0.2217404991388321  0.2665044963359833  0.49054965376853943  1.0000
  O   O1        1.0  0.4371222257614136  0.9685295820236206  0.9352778196334839  1.0000
  O   O2        1.0  0.9257251024246216  0.4788584411144257  0.9350301027297974  1.0000
  Ti  Ti1       1.0  0.46137961745262146  0.5026544332504272  0.9340134263038635  1.0000
  Ba  Ba2       1.0  0.8567725419998169  0.8999914526939392  0.7586566209793091  1.0000
  Ba  Ba3       1.0  0.04249890148639679  0.08659811317920686  0.12432900071144104  1.0000
  O   O3        1.0  0.34168457984924316  0.38508251309394836  0.7521412968635559  1.0000
  Ti  Ti2       1.0  0.6490169167518616  0.6923495531082153  0.3139330744743347  1.0000
  O   O4        1.0  0.11262901872396469  0.6687027215957642  0.3136567771434784  1.0000
  O   O5        1.0  0.7110867500305176  0.7571613788604737  0.49566584825515747  1.0000
  O   O6        1.0  0.5264127850532532  0.5701220631599427  0.12386530637741089  1.0000
  O   O7        1.0  0.6231011748313904  0.15733629465103152  0.313542902469635  1.0000
