data_image358
_chemical_formula_structural       BaOBaTi2O3BaO3
_chemical_formula_sum              "Ba3 O7 Ti2"
_cell_length_a       4.075419690262452
_cell_length_b       4.079295033046975
_cell_length_c       11.107963562011719
_cell_angle_alpha    100.53383523340794
_cell_angle_beta     100.58131859564685
_cell_angle_gamma    89.95903481695771

_space_group_name_H-M_alt    "P 1"
_space_group_IT_number       1

loop_
  _space_group_symop_operation_xyz
  'x, y, z'

loop_
  _atom_site_type_symbol
  _atom_site_label
  _atom_site_symmetry_multiplicity
  _atom_site_fract_x
  _atom_site_fract_y
  _atom_site_fract_z
  _atom_site_occupancy
  Ba  Ba1       1.0  0.0775260329246521  0.9970808029174805  0.6464555263519287  1.0000
  O   O1        1.0  0.756128191947937  0.6936637759208679  0.013427132740616798  1.0000
  Ba  Ba2       1.0  0.43406006693840027  0.3646044135093689  0.3787897527217865  1.0000
  Ti  Ti1       1.0  0.8310042023658752  0.7607980370521545  0.20354820787906647  1.0000
  Ti  Ti2       1.0  0.6830540895462036  0.5694112777709961  0.822458803653717  1.0000
  O   O2        1.0  0.6580464243888855  0.10764298588037491  0.8246397972106934  1.0000
  O   O3        1.0  0.3631160259246826  0.7835781574249268  0.20170548558235168  1.0000
  O   O4        1.0  0.5654314160346985  0.5070859789848328  0.6417237520217896  1.0000
  Ba  Ba3       1.0  0.2558993101119995  0.1786666214466095  0.012926179915666585  1.0000
  O   O5        1.0  0.8532502055168152  0.2956494987010956  0.2016621083021164  1.0000
  O   O6        1.0  0.9468422532081604  0.8778457045555116  0.3837956190109253  1.0000
  O   O7        1.0  0.14936113357543945  0.5953487157821655  0.8245143294334412  1.0000
