data_image168
_chemical_formula_structural       BaO2TiO
_chemical_formula_sum              "Ba1 O3 Ti1"
_cell_length_a       4.081768658406815
_cell_length_b       4.083315632011249
_cell_length_c       4.087787628173828
_cell_angle_alpha    89.73076328473947
_cell_angle_beta     90.23873127712562
_cell_angle_gamma    90.23289146233579

_space_group_name_H-M_alt    "P 1"
_space_group_IT_number       1

loop_
  _space_group_symop_operation_xyz
  'x, y, z'

loop_
  _atom_site_type_symbol
  _atom_site_label
  _atom_site_symmetry_multiplicity
  _atom_site_fract_x
  _atom_site_fract_y
  _atom_site_fract_z
  _atom_site_occupancy
  Ba  Ba1       1.0  0.7295588850975037  0.47902637720108027  0.7370805144309998  1.0000
  O   O1        1.0  0.245635986328125  0.9627320170402527  0.7092658877372742  1.0000
  O   O2        1.0  0.7575037479400635  0.9613900780677795  0.22032520174980164  1.0000
  Ti  Ti1       1.0  0.21425852179527283  0.9950608015060425  0.2523546516895294  1.0000
  O   O3        1.0  0.24670997262001038  0.4502371251583099  0.22064325213432312  1.0000
