data_image388
_chemical_formula_structural       TiBaO2
_chemical_formula_sum              "Ti1 Ba1 O2"
_cell_length_a       3.3075070631759367
_cell_length_b       3.3087390689777476
_cell_length_c       6.304727554321289
_cell_angle_alpha    74.81983113122584
_cell_angle_beta     74.81527514410752
_cell_angle_gamma    60.06170813386128

_space_group_name_H-M_alt    "P 1"
_space_group_IT_number       1

loop_
  _space_group_symop_operation_xyz
  'x, y, z'

loop_
  _atom_site_type_symbol
  _atom_site_label
  _atom_site_symmetry_multiplicity
  _atom_site_fract_x
  _atom_site_fract_y
  _atom_site_fract_z
  _atom_site_occupancy
  Ti  Ti1       1.0  0.4622712731361389  0.06669420003890993  0.27582377195358276  1.0000
  Ba  Ba1       1.0  0.9627395868301392  0.5666568279266357  0.7758824825286865  1.0000
  O   O1        1.0  0.7406079173088074  0.3447381854057312  0.4418346285820007  1.0000
  O   O2        1.0  0.18449835479259488  0.7883904576301575  0.10981153696775435  1.0000
