data_image699
_chemical_formula_structural       OTiBa2TiBaO5
_chemical_formula_sum              "O6 Ti2 Ba3"
_cell_length_a       4.02947146388658
_cell_length_b       4.028323540906484
_cell_length_c       11.262551307678223
_cell_angle_alpha    100.29857603786631
_cell_angle_beta     100.29753625918944
_cell_angle_gamma    90.04497941713636

_space_group_name_H-M_alt    "P 1"
_space_group_IT_number       1

loop_
  _space_group_symop_operation_xyz
  'x, y, z'

loop_
  _atom_site_type_symbol
  _atom_site_label
  _atom_site_symmetry_multiplicity
  _atom_site_fract_x
  _atom_site_fract_y
  _atom_site_fract_z
  _atom_site_occupancy
  O   O1        1.0  0.2634773254394531  0.8577155470848083  0.5840360522270203  1.0000
  Ti  Ti1       1.0  0.45447424054145813  0.548305869102478  0.9673352241516112  1.0000
  Ba  Ba1       1.0  0.037397321313619614  0.13131706416606903  0.1320962905883789  1.0000
  Ba  Ba2       1.0  0.8550596237182617  0.9489876627922058  0.7675774693489074  1.0000
  Ti  Ti2       1.0  0.25562039017677307  0.34961119294166565  0.5679671764373779  1.0000
  Ba  Ba3       1.0  0.6727949976921082  0.7665093541145325  0.40315219759941096  1.0000
  O   O2        1.0  0.9464792609214783  0.540846049785614  0.9515947103500365  1.0000
  O   O3        1.0  0.44706693291664124  0.04024500027298927  0.9515942335128783  1.0000
  O   O4        1.0  0.5446767807006836  0.6385176777839661  0.14647069573402405  1.0000
  O   O5        1.0  0.16531239449977875  0.25945502519607544  0.3886860013008117  1.0000
  O   O6        1.0  0.7637710571289062  0.3571390807628632  0.5838826298713684  1.0000
