data_image476
_chemical_formula_structural       TiBaO2
_chemical_formula_sum              "Ti1 Ba1 O2"
_cell_length_a       3.287143061919089
_cell_length_b       3.2836049980724153
_cell_length_c       6.509535789489746
_cell_angle_alpha    75.29079339939248
_cell_angle_beta     75.30075785947767
_cell_angle_gamma    59.77352836777217

_space_group_name_H-M_alt    "P 1"
_space_group_IT_number       1

loop_
  _space_group_symop_operation_xyz
  'x, y, z'

loop_
  _atom_site_type_symbol
  _atom_site_label
  _atom_site_symmetry_multiplicity
  _atom_site_fract_x
  _atom_site_fract_y
  _atom_site_fract_z
  _atom_site_occupancy
  Ti  Ti1       1.0  0.5369267463684083  0.7802433967590332  0.9679745435714721  1.0000
  Ba  Ba1       1.0  0.36281350255012523  0.6061649322509766  0.4887468516826629  1.0000
  O   O1        1.0  0.9234009385108948  0.1669103503227234  0.8076652288436889  1.0000
  O   O2        1.0  0.14735619723796844  0.3910546600818634  0.13651789724826813  1.0000
