data_image663
_chemical_formula_structural       OBaOBaO2BaTiO2
_chemical_formula_sum              "O6 Ba3 Ti1"
_cell_length_a       6.313242163184049
_cell_length_b       6.315538295534224
_cell_length_c       6.313655853271484
_cell_angle_alpha    60.0289622817218
_cell_angle_beta     60.02467820393033
_cell_angle_gamma    60.035901567221195

_space_group_name_H-M_alt    "P 1"
_space_group_IT_number       1

loop_
  _space_group_symop_operation_xyz
  'x, y, z'

loop_
  _atom_site_type_symbol
  _atom_site_label
  _atom_site_symmetry_multiplicity
  _atom_site_fract_x
  _atom_site_fract_y
  _atom_site_fract_z
  _atom_site_occupancy
  O   O1        1.0  0.6617152094841003  0.21963235735893247  0.5541747808456421  1.0000
  Ba  Ba1       1.0  0.6302985548973082  0.7506948709487915  0.08524748682975769  1.0000
  O   O2        1.0  0.09976833313703541  0.781895875930786  0.5534680485725404  1.0000
  Ba  Ba2       1.0  0.3802923560142517  0.5009426474571228  0.835353672504425  1.0000
  O   O3        1.0  0.09926412999629974  0.7816063761711121  0.11653763055801392  1.0000
  O   O4        1.0  0.6614695191383361  0.7820624113082885  0.5538734197616578  1.0000
  Ba  Ba3       1.0  0.13041794300079346  0.25091671943664545  0.5854558944702148  1.0000
  Ti  Ti1       1.0  0.8802664279937744  0.0009033679962158202  0.3353124260902405  1.0000
  O   O5        1.0  0.09953184425830841  0.21911197900772092  0.1165103018283844  1.0000
  O   O6        1.0  0.6613610982894897  0.21919047832489014  0.11677111685276031  1.0000
