data_image177
_chemical_formula_structural       O2Ba2TiO2BaTiOBaO
_chemical_formula_sum              "O6 Ba4 Ti2"
_cell_length_a       4.047294683698908
_cell_length_b       4.0481147954877565
_cell_length_c       14.683116912841797
_cell_angle_alpha    90.05589394356046
_cell_angle_beta     90.01042537324562
_cell_angle_gamma    90.00448993873042

_space_group_name_H-M_alt    "P 1"
_space_group_IT_number       1

loop_
  _space_group_symop_operation_xyz
  'x, y, z'

loop_
  _atom_site_type_symbol
  _atom_site_label
  _atom_site_symmetry_multiplicity
  _atom_site_fract_x
  _atom_site_fract_y
  _atom_site_fract_z
  _atom_site_occupancy
  O   O1        1.0  0.5228332281112671  0.6663184762001038  0.7040748596191406  1.0000
  O   O2        1.0  0.022702526301145554  0.6664225459098816  0.8530616164207458  1.0000
  Ba  Ba1       1.0  0.02277243323624134  0.16608631610870364  0.7151419520378113  1.0000
  Ba  Ba2       1.0  0.02307017892599106  0.16673311591148376  0.9808295965194702  1.0000
  Ti  Ti1       1.0  0.522840678691864  0.6665299534797668  0.8373304605484009  1.0000
  O   O3        1.0  0.02263718470931053  0.1660887598991394  0.5252488851547241  1.0000
  O   O4        1.0  0.022515811026096344  0.6662828922271729  0.37632372975349426  1.0000
  Ba  Ba3       1.0  0.5226354002952576  0.6660909652709961  0.513299286365509  1.0000
  Ti  Ti2       1.0  0.022624874487519264  0.16594436764717102  0.3917267322540283  1.0000
  O   O5        1.0  0.5225867629051208  0.1659144014120102  0.37601470947265625  1.0000
  Ba  Ba4       1.0  0.5231564044952393  0.6661806106567383  0.2482447326183319  1.0000
  O   O6        1.0  0.5229939818382263  0.1666213423013687  0.8529015779495239  1.0000
