data_image411
_chemical_formula_structural       Ba2O2BaTi2O5
_chemical_formula_sum              "Ba3 O7 Ti2"
_cell_length_a       4.070867485241281
_cell_length_b       4.075442286978911
_cell_length_c       11.059258460998535
_cell_angle_alpha    100.51593925360517
_cell_angle_beta     100.54179869223249
_cell_angle_gamma    90.46442113806907

_space_group_name_H-M_alt    "P 1"
_space_group_IT_number       1

loop_
  _space_group_symop_operation_xyz
  'x, y, z'

loop_
  _atom_site_type_symbol
  _atom_site_label
  _atom_site_symmetry_multiplicity
  _atom_site_fract_x
  _atom_site_fract_y
  _atom_site_fract_z
  _atom_site_occupancy
  Ba  Ba1       1.0  0.8051997423171997  0.799044132232666  0.563567042350769  1.0000
  Ba  Ba2       1.0  0.6197634339332581  0.6181926131248474  0.19786128401756287  1.0000
  O   O1        1.0  0.22677630186080933  0.6891413331031799  0.38731831312179565  1.0000
  O   O2        1.0  0.949188768863678  0.9186009764671326  0.8264114260673523  1.0000
  Ba  Ba3       1.0  0.43955329060554504  0.4345012903213501  0.8324830532073975  1.0000
  Ti  Ti1       1.0  0.010791286826133728  0.038342121988534934  0.008331061340868473  1.0000
  Ti  Ti2       1.0  0.20212700963020325  0.22481790184974673  0.3880298137664795  1.0000
  O   O3        1.0  0.7373027801513672  0.2007465958595276  0.38697704672813416  1.0000
  O   O4        1.0  0.03698361665010452  0.5014179944992065  0.008533336222171783  1.0000
  O   O5        1.0  0.547775387763977  0.01314937137067318  0.008449255488812918  1.0000
  O   O6        1.0  0.3201158344745636  0.2881579101085663  0.5685105323791504  1.0000
  O   O7        1.0  0.13544657826423645  0.10194047540426254  0.19745630025863647  1.0000
