data_image306
_chemical_formula_structural       Ba2TiO3TiO4
_chemical_formula_sum              "Ba2 Ti2 O7"
_cell_length_a       3.8548334161383595
_cell_length_b       3.8551397725784886
_cell_length_c       10.90781307220459
_cell_angle_alpha    89.97032533253527
_cell_angle_beta     90.0413797902951
_cell_angle_gamma    89.95766899207634

_space_group_name_H-M_alt    "P 1"
_space_group_IT_number       1

loop_
  _space_group_symop_operation_xyz
  'x, y, z'

loop_
  _atom_site_type_symbol
  _atom_site_label
  _atom_site_symmetry_multiplicity
  _atom_site_fract_x
  _atom_site_fract_y
  _atom_site_fract_z
  _atom_site_occupancy
  Ba  Ba1       1.0  0.6026872396469116  0.9061756134033203  0.5537050366401672  1.0000
  Ba  Ba2       1.0  0.6031628847122192  0.9066137671470641  0.05202054604887962  1.0000
  Ti  Ti1       1.0  0.10351626574993134  0.40685006976127625  0.2726389169692993  1.0000
  O   O1        1.0  0.10332956910133362  0.40718966722488403  0.43633386492729187  1.0000
  O   O2        1.0  0.10242053121328354  0.9069061875343323  0.8611357808113098  1.0000
  O   O3        1.0  0.10421855002641678  0.9066919684410094  0.24260513484477997  1.0000
  Ti  Ti2       1.0  0.1030614897608757  0.40733262896537775  0.8320788741111755  1.0000
  O   O4        1.0  0.6027389764785767  0.40684255957603455  0.8626635074615479  1.0000
  O   O5        1.0  0.10331688821315765  0.4068352580070495  0.052295275032520294  1.0000
  O   O6        1.0  0.1033458262681961  0.40735310316085815  0.6687765717506409  1.0000
  O   O7        1.0  0.603814423084259  0.4062798917293548  0.24228349328041077  1.0000
