data_image628
_chemical_formula_structural       BaO3BaTiO
_chemical_formula_sum              "Ba2 O4 Ti1"
_cell_length_a       4.045768610157114
_cell_length_b       4.046018105785774
_cell_length_c       7.334509372711182
_cell_angle_alpha    106.00124931912347
_cell_angle_beta     106.02830997619655
_cell_angle_gamma    89.99101387994457

_space_group_name_H-M_alt    "P 1"
_space_group_IT_number       1

loop_
  _space_group_symop_operation_xyz
  'x, y, z'

loop_
  _atom_site_type_symbol
  _atom_site_label
  _atom_site_symmetry_multiplicity
  _atom_site_fract_x
  _atom_site_fract_y
  _atom_site_fract_z
  _atom_site_occupancy
  Ba  Ba1       1.0  0.9351890087127684  0.7385947704315184  0.8759444355964661  1.0000
  O   O1        1.0  0.1440596580505371  0.9473642706871033  0.2939808666706085  1.0000
  O   O2        1.0  0.4396001398563385  0.2430373728275299  0.8844729661941528  1.0000
  O   O3        1.0  0.7917677760124207  0.09516675770282745  0.5892912745475769  1.0000
  Ba  Ba2       1.0  0.6485974192619324  0.45195290446281433  0.3033273220062256  1.0000
  Ti  Ti1       1.0  0.2923811674118042  0.09567116200923918  0.5901933312416077  1.0000
  O   O4        1.0  0.2917211055755615  0.5951459407806396  0.5892270803451538  1.0000
