data_image189
_chemical_formula_structural       TiOBaO3
_chemical_formula_sum              "Ti1 O4 Ba1"
_cell_length_a       3.3005599427225265
_cell_length_b       3.7509305638789736
_cell_length_c       6.3561553955078125
_cell_angle_alpha    94.83878860718568
_cell_angle_beta     90.17116021795943
_cell_angle_gamma    90.22181972690605

_space_group_name_H-M_alt    "P 1"
_space_group_IT_number       1

loop_
  _space_group_symop_operation_xyz
  'x, y, z'

loop_
  _atom_site_type_symbol
  _atom_site_label
  _atom_site_symmetry_multiplicity
  _atom_site_fract_x
  _atom_site_fract_y
  _atom_site_fract_z
  _atom_site_occupancy
  Ti  Ti1       1.0  0.8107821345329285  0.22564172744750974  0.6904042959213257  1.0000
  O   O1        1.0  0.3094596862792969  0.8945279121398926  0.630790114402771  1.0000
  Ba  Ba1       1.0  0.3095797896385193  0.7262988090515137  0.19006125628948212  1.0000
  O   O2        1.0  0.3104756772518158  0.5570818185806274  0.7486324906349182  1.0000
  O   O3        1.0  0.8111335635185242  0.1696183532476425  0.9721888899803162  1.0000
  O   O4        1.0  0.8107112050056458  0.2815406918525696  0.4077654778957367  1.0000
