data_image398
_chemical_formula_structural       BaOTiOBaO3TiO
_chemical_formula_sum              "Ba2 O6 Ti2"
_cell_length_a       4.055097598272305
_cell_length_b       4.075842581397969
_cell_length_c       8.20106029510498
_cell_angle_alpha    89.73500482138654
_cell_angle_beta     89.72208893381895
_cell_angle_gamma    89.70930967007412

_space_group_name_H-M_alt    "P 1"
_space_group_IT_number       1

loop_
  _space_group_symop_operation_xyz
  'x, y, z'

loop_
  _atom_site_type_symbol
  _atom_site_label
  _atom_site_symmetry_multiplicity
  _atom_site_fract_x
  _atom_site_fract_y
  _atom_site_fract_z
  _atom_site_occupancy
  Ba  Ba1       1.0  0.5299087762832642  0.3333855867385864  0.053384289145469666  1.0000
  O   O1        1.0  0.04775598272681236  0.8530169129371643  0.5710748434066772  1.0000
  Ti  Ti1       1.0  0.015788495540618896  0.8195935487747192  0.2962256073951721  1.0000
  O   O2        1.0  0.049122706055641174  0.8540552258491515  0.0708833858370781  1.0000
  Ba  Ba2       1.0  0.5293731093406677  0.3332842290401459  0.5535821318626404  1.0000
  O   O3        1.0  0.04596821591258049  0.36331039667129517  0.31279128789901733  1.0000
  O   O4        1.0  0.5572569370269775  0.8510774374008179  0.31335911154747015  1.0000
  O   O5        1.0  0.5552401542663574  0.8512420058250427  0.8133974075317383  1.0000
  Ti  Ti2       1.0  0.015532242134213448  0.8194703459739685  0.7969964742660522  1.0000
  O   O6        1.0  0.0455140545964241  0.36247724294662476  0.8136312365531921  1.0000
