data_image144
_chemical_formula_structural       TiO2Ba
_chemical_formula_sum              "Ti1 O2 Ba1"
_cell_length_a       3.320285975943458
_cell_length_b       3.318528144235466
_cell_length_c       6.351868152618408
_cell_angle_alpha    74.83299892287258
_cell_angle_beta     74.81740642531044
_cell_angle_gamma    59.93358020089058

_space_group_name_H-M_alt    "P 1"
_space_group_IT_number       1

loop_
  _space_group_symop_operation_xyz
  'x, y, z'

loop_
  _atom_site_type_symbol
  _atom_site_label
  _atom_site_symmetry_multiplicity
  _atom_site_fract_x
  _atom_site_fract_y
  _atom_site_fract_z
  _atom_site_occupancy
  Ti  Ti1       1.0  0.9609658122062684  0.3750099241733551  0.4510426819324493  1.0000
  O   O1        1.0  0.2370624393224717  0.6517923474311828  0.6202369928359985  1.0000
  O   O2        1.0  0.6830886006355286  0.09830012917518614  0.2827489376068115  1.0000
  Ba  Ba1       1.0  0.4597120881080628  0.8753494620323181  0.9517319202423095  1.0000
