data_image536
_chemical_formula_structural       Ti2Ba2O4
_chemical_formula_sum              "Ti2 Ba2 O4"
_cell_length_a       3.303521633423844
_cell_length_b       3.3054621445137222
_cell_length_c       12.105454444885254
_cell_angle_alpha    90.02276752561372
_cell_angle_beta     90.0007401649179
_cell_angle_gamma    119.98912959985394

_space_group_name_H-M_alt    "P 1"
_space_group_IT_number       1

loop_
  _space_group_symop_operation_xyz
  'x, y, z'

loop_
  _atom_site_type_symbol
  _atom_site_label
  _atom_site_symmetry_multiplicity
  _atom_site_fract_x
  _atom_site_fract_y
  _atom_site_fract_z
  _atom_site_occupancy
  Ti  Ti1       1.0  0.609778642654419  0.37955734133720404  0.44328060746192927  1.0000
  Ti  Ti2       1.0  0.6101751327514648  0.37983307242393494  0.9428204298019408  1.0000
  Ba  Ba1       1.0  0.943614363670349  0.04634202644228935  0.19282753765583038  1.0000
  Ba  Ba2       1.0  0.27677682042121887  0.7130638957023621  0.6925907731056213  1.0000
  O   O1        1.0  0.27669939398765564  0.7126717567443848  0.3595983684062958  1.0000
  O   O2        1.0  0.27693817019462585  0.7136445045471193  0.025697873905301094  1.0000
  O   O3        1.0  0.9433218836784362  0.04622568562626839  0.5272988080978394  1.0000
  O   O4        1.0  0.9435500502586364  0.04685552790760994  0.8588951230049132  1.0000
