data_image537
_chemical_formula_structural       Ba3OTiO2TiO4
_chemical_formula_sum              "Ba3 O7 Ti2"
_cell_length_a       4.069287866356506
_cell_length_b       4.079205532345849
_cell_length_c       11.071682929992676
_cell_angle_alpha    100.66225539277771
_cell_angle_beta     100.60712953829754
_cell_angle_gamma    89.86732589410549

_space_group_name_H-M_alt    "P 1"
_space_group_IT_number       1

loop_
  _space_group_symop_operation_xyz
  'x, y, z'

loop_
  _atom_site_type_symbol
  _atom_site_label
  _atom_site_symmetry_multiplicity
  _atom_site_fract_x
  _atom_site_fract_y
  _atom_site_fract_z
  _atom_site_occupancy
  Ba  Ba1       1.0  0.7977824211120605  0.6218194961547852  0.3001946210861206  1.0000
  Ba  Ba2       1.0  0.9830068945884703  0.8060110807418824  0.6664162874221802  1.0000
  Ba  Ba3       1.0  0.6158453822135925  0.44038864970207214  0.9345667958259583  1.0000
  O   O1        1.0  0.9140489101409911  0.22766442596912387  0.48958057165145874  1.0000
  Ti  Ti1       1.0  0.3789387047290802  0.20425131916999817  0.4906006157398224  1.0000
  O   O2        1.0  0.31327587366104126  0.13807189464569092  0.301185667514801  1.0000
  O   O3        1.0  0.4036443531513214  0.7402428388595581  0.48969247937202454  1.0000
  Ti  Ti2       1.0  0.1897856891155243  0.013292491436004639  0.11109280586242676  1.0000
  O   O4        1.0  0.21414677798748014  0.551327645778656  0.11130715161561966  1.0000
  O   O5        1.0  0.12707914412021637  0.9510778188705445  0.9294841885566711  1.0000
  O   O6        1.0  0.7264175415039062  0.03912713006138802  0.11127332597970963  1.0000
  O   O7        1.0  0.4980138540267944  0.322832465171814  0.6731604337692261  1.0000
