data_image344
_chemical_formula_structural       BaTiBaO4
_chemical_formula_sum              "Ba2 Ti1 O4"
_cell_length_a       4.039032467621
_cell_length_b       4.0374882910612415
_cell_length_c       7.3277997970581055
_cell_angle_alpha    105.92773029525087
_cell_angle_beta     105.98487797711319
_cell_angle_gamma    90.00530957164548

_space_group_name_H-M_alt    "P 1"
_space_group_IT_number       1

loop_
  _space_group_symop_operation_xyz
  'x, y, z'

loop_
  _atom_site_type_symbol
  _atom_site_label
  _atom_site_symmetry_multiplicity
  _atom_site_fract_x
  _atom_site_fract_y
  _atom_site_fract_z
  _atom_site_occupancy
  Ba  Ba1       1.0  0.387476772069931  0.7040417790412902  0.30213025212287903  1.0000
  Ti  Ti1       1.0  0.03102318942546844  0.34700459241867065  0.5888466238975525  1.0000
  Ba  Ba2       1.0  0.6742031574249268  0.9905639886856079  0.8752725124359131  1.0000
  O   O1        1.0  0.1785016059875488  0.4950482249259948  0.883937656879425  1.0000
  O   O2        1.0  0.5307531356811523  0.3470628559589386  0.5887068510055542  1.0000
  O   O3        1.0  0.030797591432929025  0.8473524451255797  0.5887979865074158  1.0000
  O   O4        1.0  0.8831128478050231  0.1995215117931366  0.29346659779548645  1.0000
