data_image326
_chemical_formula_structural       BaO2Ti
_chemical_formula_sum              "Ba1 O2 Ti1"
_cell_length_a       4.007185121787679
_cell_length_b       4.148083219381299
_cell_length_c       4.010366916656494
_cell_angle_alpha    89.97225827636869
_cell_angle_beta     90.015117715117
_cell_angle_gamma    90.03261665737078

_space_group_name_H-M_alt    "P 1"
_space_group_IT_number       1

loop_
  _space_group_symop_operation_xyz
  'x, y, z'

loop_
  _atom_site_type_symbol
  _atom_site_label
  _atom_site_symmetry_multiplicity
  _atom_site_fract_x
  _atom_site_fract_y
  _atom_site_fract_z
  _atom_site_occupancy
  Ba  Ba1       1.0  0.8230770230293274  0.9500089287757874  0.8179171085357666  1.0000
  O   O1        1.0  0.8230900764465332  0.4504493474960327  0.3181989192962647  1.0000
  O   O2        1.0  0.32352718710899353  0.4505024552345276  0.8179639577865601  1.0000
  Ti  Ti1       1.0  0.32363569736480713  0.44950202107429504  0.3185279071331024  1.0000
