data_image207
_chemical_formula_structural       O2BaTi
_chemical_formula_sum              "O2 Ba1 Ti1"
_cell_length_a       3.298631271404392
_cell_length_b       3.2982990572294923
_cell_length_c       6.303825378417969
_cell_angle_alpha    74.85147548735011
_cell_angle_beta     74.8483065486506
_cell_angle_gamma    60.068373750998916

_space_group_name_H-M_alt    "P 1"
_space_group_IT_number       1

loop_
  _space_group_symop_operation_xyz
  'x, y, z'

loop_
  _atom_site_type_symbol
  _atom_site_label
  _atom_site_symmetry_multiplicity
  _atom_site_fract_x
  _atom_site_fract_y
  _atom_site_fract_z
  _atom_site_occupancy
  O   O1        1.0  0.9502509832382202  0.6524876952171326  0.6164061427116394  1.0000
  O   O2        1.0  0.3937635123729706  0.09648243337869644  0.2840157449245453  1.0000
  Ba  Ba1       1.0  0.1717759221792221  0.8743427991867065  0.9503623843193053  1.0000
  Ti  Ti1       1.0  0.6724675893783569  0.3740943670272827  0.4498408138751983  1.0000
