data_image543
_chemical_formula_structural       BaOTi2O2TiOBaTiO4BaO3
_chemical_formula_sum              "Ba3 O11 Ti4"
_cell_length_a       3.975634996564943
_cell_length_b       3.9310073664799976
_cell_length_c       16.69367218017578
_cell_angle_alpha    89.97234023852693
_cell_angle_beta     89.95234144530733
_cell_angle_gamma    89.9373560072097

_space_group_name_H-M_alt    "P 1"
_space_group_IT_number       1

loop_
  _space_group_symop_operation_xyz
  'x, y, z'

loop_
  _atom_site_type_symbol
  _atom_site_label
  _atom_site_symmetry_multiplicity
  _atom_site_fract_x
  _atom_site_fract_y
  _atom_site_fract_z
  _atom_site_occupancy
  Ba  Ba1       1.0  0.703922688961029  0.9933498501777649  0.05405839905142784  1.0000
  O   O1        1.0  0.204548642039299  0.4930914044380188  0.07618613541126251  1.0000
  Ti  Ti1       1.0  0.2033499926328659  0.49297982454299927  0.9299749732017517  1.0000
  Ti  Ti2       1.0  0.20527079701423645  0.4939125180244446  0.6722767949104309  1.0000
  O   O2        1.0  0.20465369522571564  0.993529736995697  0.6873929500579834  1.0000
  O   O3        1.0  0.20519644021987915  0.49426504969596863  0.5664421916007996  1.0000
  Ti  Ti3       1.0  0.20510444045066833  0.49474820494651794  0.4108709394931793  1.0000
  O   O4        1.0  0.7050696611404419  0.4948478043079376  0.43117937445640564  1.0000
  Ba  Ba2       1.0  0.7054846882820129  0.9942623972892761  0.5447635650634766  1.0000
  Ti  Ti4       1.0  0.20460784435272217  0.4938591718673706  0.19231797754764557  1.0000
  O   O5        1.0  0.20573975145816803  0.9939327239990234  0.4306396245956421  1.0000
  O   O6        1.0  0.20379532873630524  0.9924479722976685  0.9391482472419739  1.0000
  O   O7        1.0  0.7045998573303223  0.49361005425453186  0.687536895275116  1.0000
  O   O8        1.0  0.7036778330802917  0.4923546016216278  0.9401277899742126  1.0000
  Ba  Ba3       1.0  0.7044129967689514  0.9934104681015015  0.8043847680091858  1.0000
  O   O9        1.0  0.20417729020118713  0.49319252371788025  0.8176122307777405  1.0000
  O   O10       1.0  0.20470398664474487  0.9929121732711792  0.18386104702949524  1.0000
  O   O11       1.0  0.20538859069347382  0.49392664432525635  0.30141863226890564  1.0000
