data_image653
_chemical_formula_structural       BaTiO2
_chemical_formula_sum              "Ba1 Ti1 O2"
_cell_length_a       3.31178624850282
_cell_length_b       3.313379083377186
_cell_length_c       6.3049468994140625
_cell_angle_alpha    74.83091043339103
_cell_angle_beta     74.78124157978434
_cell_angle_gamma    60.06237062165548

_space_group_name_H-M_alt    "P 1"
_space_group_IT_number       1

loop_
  _space_group_symop_operation_xyz
  'x, y, z'

loop_
  _atom_site_type_symbol
  _atom_site_label
  _atom_site_symmetry_multiplicity
  _atom_site_fract_x
  _atom_site_fract_y
  _atom_site_fract_z
  _atom_site_occupancy
  Ba  Ba1       1.0  0.25314271450042725  0.02171645686030388  0.04920872300863266  1.0000
  Ti  Ti1       1.0  0.7522009611129761  0.520901620388031  0.549964427947998  1.0000
  O   O1        1.0  0.47544828057289124  0.2437368631362915  0.382673442363739  1.0000
  O   O2        1.0  0.03092925064265728  0.7991478443145752  0.716477632522583  1.0000
