data_image373
_chemical_formula_structural       BaOBa3TiOBaTi2O2
_chemical_formula_sum              "Ba5 O4 Ti3"
_cell_length_a       4.015279433132094
_cell_length_b       7.858687803797302
_cell_length_c       11.31783676147461
_cell_angle_alpha    93.95097326915572
_cell_angle_beta     89.95770996804659
_cell_angle_gamma    90.00785722223893

_space_group_name_H-M_alt    "P 1"
_space_group_IT_number       1

loop_
  _space_group_symop_operation_xyz
  'x, y, z'

loop_
  _atom_site_type_symbol
  _atom_site_label
  _atom_site_symmetry_multiplicity
  _atom_site_fract_x
  _atom_site_fract_y
  _atom_site_fract_z
  _atom_site_occupancy
  Ba  Ba1       1.0  0.7677411437034607  0.6443800330162048  0.45735931396484375  1.0000
  O   O1        1.0  0.26993802189826965  0.1530134677886963  0.5894854664802551  1.0000
  Ba  Ba2       1.0  0.26947227120399475  0.9805503487586975  0.8072080612182617  1.0000
  Ba  Ba3       1.0  0.26853787899017334  0.5493636131286621  0.11158251017332077  1.0000
  Ba  Ba4       1.0  0.2684358060359955  0.44981467723846436  0.753705620765686  1.0000
  Ti  Ti1       1.0  0.7689383625984192  0.1642703264951706  0.5938376784324646  1.0000
  O   O2        1.0  0.7686129808425903  0.20364344120025635  0.7745511531829834  1.0000
  Ba  Ba5       1.0  0.7689727544784546  0.08437427878379822  0.22948791086673737  1.0000
  Ti  Ti2       1.0  0.7679629921913147  0.26696670055389404  0.9496120810508728  1.0000
  Ti  Ti3       1.0  0.26892930269241333  0.2747766673564911  0.4452899694442749  1.0000
  O   O3        1.0  0.26761502027511597  0.2806674242019653  0.9548252820968628  1.0000
  O   O4        1.0  0.7696666121482849  0.2788164019584656  0.4305891692638397  1.0000
