data_image486
_chemical_formula_structural       BaTiO3
_chemical_formula_sum              "Ba1 Ti1 O3"
_cell_length_a       4.084811665583398
_cell_length_b       4.089538684751151
_cell_length_c       4.09495210647583
_cell_angle_alpha    90.2493726987228
_cell_angle_beta     90.20708700953028
_cell_angle_gamma    89.68196838597437

_space_group_name_H-M_alt    "P 1"
_space_group_IT_number       1

loop_
  _space_group_symop_operation_xyz
  'x, y, z'

loop_
  _atom_site_type_symbol
  _atom_site_label
  _atom_site_symmetry_multiplicity
  _atom_site_fract_x
  _atom_site_fract_y
  _atom_site_fract_z
  _atom_site_occupancy
  Ba  Ba1       1.0  0.24535305798053741  0.2557283639907837  0.35860201716423035  1.0000
  Ti  Ti1       1.0  0.7298896908760071  0.7395309805870056  0.8756925463676453  1.0000
  O   O1        1.0  0.2742483615875244  0.7733673453330993  0.8410260677337646  1.0000
  O   O2        1.0  0.7619687914848328  0.2851122319698334  0.8417569398880005  1.0000
  O   O3        1.0  0.7619527578353882  0.7724480032920837  0.32913732528686523  1.0000
