data_image301
_chemical_formula_structural       TiOTi2BaTiBaO2TiBaO5TiO3
_chemical_formula_sum              "Ti6 O11 Ba3"
_cell_length_a       5.977630724061118
_cell_length_b       6.410286403386808
_cell_length_c       8.13780689239502
_cell_angle_alpha    96.48051339333342
_cell_angle_beta     94.89045881997995
_cell_angle_gamma    90.87368613264407

_space_group_name_H-M_alt    "P 1"
_space_group_IT_number       1

loop_
  _space_group_symop_operation_xyz
  'x, y, z'

loop_
  _atom_site_type_symbol
  _atom_site_label
  _atom_site_symmetry_multiplicity
  _atom_site_fract_x
  _atom_site_fract_y
  _atom_site_fract_z
  _atom_site_occupancy
  Ti  Ti1       1.0  0.15433435142040253  0.9303377866744995  0.8341532349586487  1.0000
  O   O1        1.0  0.13471640646457672  0.6778693199157715  0.662547767162323  1.0000
  Ti  Ti2       1.0  0.10537271946668625  0.745514452457428  0.4409903287887573  1.0000
  Ti  Ti3       1.0  0.601757287979126  0.13565321266651154  0.454293429851532  1.0000
  Ba  Ba1       1.0  0.5670803785324097  0.7235485315322876  0.16619598865509033  1.0000
  Ti  Ti4       1.0  0.02427423931658268  0.5236883163452148  0.9905530214309692  1.0000
  Ba  Ba2       1.0  0.07543192058801651  0.16801114380359647  0.2569102644920349  1.0000
  O   O2        1.0  0.9736699461936951  0.8208101987838744  0.9778595566749573  1.0000
  O   O3        1.0  0.465760201215744  0.9225867986679076  0.9065310955047607  1.0000
  Ti  Ti5       1.0  0.5167310833930969  0.20326647162437436  0.9888954758644104  1.0000
  Ba  Ba3       1.0  0.6351931095123291  0.6576207280158995  0.6767846941947937  1.0000
  O   O4        1.0  0.7167098522186279  0.41755068302154535  0.9478598833084106  1.0000
  O   O5        1.0  0.19194291532039642  0.25605159997940063  0.921209990978241  1.0000
  O   O6        1.0  0.8342034816741943  0.887365698814392  0.4243071675300598  1.0000
  O   O7        1.0  0.37914201617240906  0.31990996003150934  0.5416772365570068  1.0000
  O   O8        1.0  0.8547672629356384  0.3160744309425354  0.5338429808616638  1.0000
  Ti  Ti6       1.0  0.12885890901088715  0.3571801483631134  0.6885356307029724  1.0000
  O   O9        1.0  0.11467047780752182  0.571825087070465  0.23019617795944214  1.0000
  O   O10       1.0  0.3715369701385498  0.9009399414062499  0.4297606647014618  1.0000
  O   O11       1.0  0.5741229057312012  0.17363193631172177  0.22309453785419464  1.0000
