data_image557
_chemical_formula_structural       OBaO2Ti2O3Ba
_chemical_formula_sum              "O6 Ba2 Ti2"
_cell_length_a       4.018706801688876
_cell_length_b       6.244548076382643
_cell_length_c       8.013699531555176
_cell_angle_alpha    112.77100694188083
_cell_angle_beta     90.00226329710381
_cell_angle_gamma    90.02263775224246

_space_group_name_H-M_alt    "P 1"
_space_group_IT_number       1

loop_
  _space_group_symop_operation_xyz
  'x, y, z'

loop_
  _atom_site_type_symbol
  _atom_site_label
  _atom_site_symmetry_multiplicity
  _atom_site_fract_x
  _atom_site_fract_y
  _atom_site_fract_z
  _atom_site_occupancy
  O   O1        1.0  0.9780254364013672  0.3863492012023926  0.7588465809822083  1.0000
  Ba  Ba1       1.0  0.47796231508255005  0.6825734376907349  0.8016980290412903  1.0000
  O   O2        1.0  0.47781628370285034  0.05689616128802299  0.5492972135543823  1.0000
  O   O3        1.0  0.9778215885162354  0.9535508155822754  0.34016215801239014  1.0000
  Ti  Ti1       1.0  0.9780704379081726  0.08735235035419464  0.6100210547447205  1.0000
  Ti  Ti2       1.0  0.477939635515213  0.9209356904029845  0.2789997458457947  1.0000
  O   O4        1.0  0.47796759009361267  0.6223938465118407  0.13154706358909604  1.0000
  O   O5        1.0  0.9777088165283203  0.9346983432769774  0.7571110129356384  1.0000
  O   O6        1.0  0.47770169377326965  0.07264421135187149  0.1306084394454956  1.0000
  Ba  Ba2       1.0  0.9778163433074951  0.32424154877662653  0.08655187487602234  1.0000
