data_image673
_chemical_formula_structural       BaO3BaOBaTiO
_chemical_formula_sum              "Ba3 O5 Ti1"
_cell_length_a       3.971884153587929
_cell_length_b       6.191342179863485
_cell_length_c       7.315186977386475
_cell_angle_alpha    115.03888218683741
_cell_angle_beta     105.77113952193682
_cell_angle_gamma    89.98216855585864

_space_group_name_H-M_alt    "P 1"
_space_group_IT_number       1

loop_
  _space_group_symop_operation_xyz
  'x, y, z'

loop_
  _atom_site_type_symbol
  _atom_site_label
  _atom_site_symmetry_multiplicity
  _atom_site_fract_x
  _atom_site_fract_y
  _atom_site_fract_z
  _atom_site_occupancy
  Ba  Ba1       1.0  0.4015722274780274  0.2052498310804367  0.7656990885734559  1.0000
  O   O1        1.0  0.22876626253128055  0.30338129401206965  0.41999772191047674  1.0000
  O   O2        1.0  0.9974514842033387  0.07211115211248398  0.9571831226348878  1.0000
  O   O3        1.0  0.9975562095642091  0.529982566833496  0.9568998813629152  1.0000
  Ba  Ba2       1.0  0.8246409296989442  0.6282278299331665  0.6115699410438538  1.0000
  O   O4        1.0  0.6130312085151673  0.4166339337825775  0.1885582655668259  1.0000
  Ba  Ba3       1.0  0.6131374835968019  0.9165566563606262  0.18836289644241336  1.0000
  Ti  Ti1       1.0  0.11314433068037033  0.41664654016494745  0.18837274610996244  1.0000
  O   O5        1.0  0.22879581153392795  0.7616606950759887  0.4195605516433716  1.0000
