data_image488
_chemical_formula_structural       BaTiBaO6Ba
_chemical_formula_sum              "Ba3 Ti1 O6"
_cell_length_a       6.150492270513372
_cell_length_b       6.1748632857903285
_cell_length_c       6.281006813049316
_cell_angle_alpha    119.36874398765339
_cell_angle_beta     119.39990316123216
_cell_angle_gamma    90.10630838254586

_space_group_name_H-M_alt    "P 1"
_space_group_IT_number       1

loop_
  _space_group_symop_operation_xyz
  'x, y, z'

loop_
  _atom_site_type_symbol
  _atom_site_label
  _atom_site_symmetry_multiplicity
  _atom_site_fract_x
  _atom_site_fract_y
  _atom_site_fract_z
  _atom_site_occupancy
  Ba  Ba1       1.0  0.7995645999908448  0.8609108328819276  0.6727308034896851  1.0000
  Ti  Ti1       1.0  0.5492361187934875  0.11006546020507814  0.172931969165802  1.0000
  Ba  Ba2       1.0  0.2987307608127594  0.36045247316360474  0.6729956269264221  1.0000
  O   O1        1.0  0.6853837370872498  0.39932158589363104  0.17426788806915283  1.0000
  O   O2        1.0  0.836797595024109  0.9739819169044495  0.1724548637866974  1.0000
  O   O3        1.0  0.41263106465339666  0.8216562867164612  0.17218138277530665  1.0000
  O   O4        1.0  0.3329296410083771  0.8932719826698304  0.7383379936218263  1.0000
  O   O5        1.0  0.766140103340149  0.32702523469924927  0.6073309183120728  1.0000
  O   O6        1.0  0.2609582841396332  0.2463570535182953  0.17309479415416718  1.0000
  Ba  Ba3       1.0  0.04878748208284379  0.6101093888282776  0.17274320125579834  1.0000
