data_image792
_chemical_formula_structural       TiO2BaOBaO
_chemical_formula_sum              "Ti1 O4 Ba2"
_cell_length_a       4.041502865690057
_cell_length_b       4.044121798176221
_cell_length_c       7.311946392059326
_cell_angle_alpha    106.04772890787149
_cell_angle_beta     106.06742046108207
_cell_angle_gamma    89.99812463208148

_space_group_name_H-M_alt    "P 1"
_space_group_IT_number       1

loop_
  _space_group_symop_operation_xyz
  'x, y, z'

loop_
  _atom_site_type_symbol
  _atom_site_label
  _atom_site_symmetry_multiplicity
  _atom_site_fract_x
  _atom_site_fract_y
  _atom_site_fract_z
  _atom_site_occupancy
  Ti  Ti1       1.0  0.032872363924980164  0.14198210835456848  0.8413468599319457  1.0000
  O   O1        1.0  0.03267782926559448  0.641538679599762  0.8407921195030211  1.0000
  O   O2        1.0  0.5329670906066895  0.14170333743095398  0.840944468975067  1.0000
  Ba  Ba1       1.0  0.6759938597679138  0.7847671508789062  0.12709307670593262  1.0000
  O   O3        1.0  0.884836733341217  0.9934505820274353  0.5452675223350525  1.0000
  Ba  Ba2       1.0  0.3896184265613556  0.4982653856277466  0.555364191532135  1.0000
  O   O4        1.0  0.18074509501457214  0.2898504137992859  0.13640393316745758  1.0000
