data_image612
_chemical_formula_structural       Ba2TiOTiO2TiO4
_chemical_formula_sum              "Ba2 Ti3 O7"
_cell_length_a       5.627675578580364
_cell_length_b       5.577713884110213
_cell_length_c       7.466500759124756
_cell_angle_alpha    104.64840153735027
_cell_angle_beta     98.67003301305257
_cell_angle_gamma    92.0670980033109

_space_group_name_H-M_alt    "P 1"
_space_group_IT_number       1

loop_
  _space_group_symop_operation_xyz
  'x, y, z'

loop_
  _atom_site_type_symbol
  _atom_site_label
  _atom_site_symmetry_multiplicity
  _atom_site_fract_x
  _atom_site_fract_y
  _atom_site_fract_z
  _atom_site_occupancy
  Ba  Ba1       1.0  0.8015872240066528  0.6837471723556519  0.30189743638038635  1.0000
  Ba  Ba2       1.0  0.28934967517852783  0.3140765428543091  0.8775206804275513  1.0000
  Ti  Ti1       1.0  0.23359657824039456  0.16290661692619324  0.3017670214176178  1.0000
  O   O1        1.0  0.2277114242315292  0.45239126682281494  0.24588175117969513  1.0000
  Ti  Ti2       1.0  0.780958890914917  0.26315370202064514  0.5937551856040955  1.0000
  O   O2        1.0  0.05387927964329719  0.13590161502361298  0.4914313554763794  1.0000
  O   O3        1.0  0.5805345773696899  0.7118788361549377  0.9660158157348633  1.0000
  Ti  Ti3       1.0  0.8119412660598755  0.8454190492630006  0.8759856820106506  1.0000
  O   O4        1.0  0.06887319684028625  0.9364838004112245  0.08011025190353394  1.0000
  O   O5        1.0  0.5501335263252258  0.10459778457880022  0.38333746790885925  1.0000
  O   O6        1.0  0.7377606630325317  0.13844576478004456  0.8004041314125061  1.0000
  O   O7        1.0  0.8881185650825499  0.6011462211608887  0.6725153923034668  1.0000
