data_image522
_chemical_formula_structural       BaOBaTi2O6
_chemical_formula_sum              "Ba2 O7 Ti2"
_cell_length_a       3.850487818256811
_cell_length_b       6.798053527069116
_cell_length_c       6.4135260581970215
_cell_angle_alpha    93.69023790397665
_cell_angle_beta     89.92333362445844
_cell_angle_gamma    90.03842914858993

_space_group_name_H-M_alt    "P 1"
_space_group_IT_number       1

loop_
  _space_group_symop_operation_xyz
  'x, y, z'

loop_
  _atom_site_type_symbol
  _atom_site_label
  _atom_site_symmetry_multiplicity
  _atom_site_fract_x
  _atom_site_fract_y
  _atom_site_fract_z
  _atom_site_occupancy
  Ba  Ba1       1.0  0.6115673780441284  0.06607081741094589  0.06913165748119354  1.0000
  O   O1        1.0  0.11161830276250839  0.9486497044563292  0.3234042227268219  1.0000
  Ba  Ba2       1.0  0.6111927628517151  0.48285540938377375  0.7421053051948547  1.0000
  Ti  Ti1       1.0  0.11142786592245102  0.6364074349403381  0.20283709466457367  1.0000
  Ti  Ti2       1.0  0.11141461133956909  0.9129006266593933  0.607563853263855  1.0000
  O   O2        1.0  0.11126205325126648  0.7737851142883301  0.9046781659126282  1.0000
  O   O3        1.0  0.6113808751106262  0.6707701086997986  0.16634458303451538  1.0000
  O   O4        1.0  0.11141978204250336  0.5998337268829345  0.4869466125965118  1.0000
  O   O5        1.0  0.11149720847606659  0.3877162039279937  0.0827329158782959  1.0000
  O   O6        1.0  0.6113685965538025  0.877669870853424  0.6430542469024658  1.0000
  O   O7        1.0  0.1112586036324501  0.16135306656360626  0.7287632822990417  1.0000
