data_image99
_chemical_formula_structural       BaOTiO
_chemical_formula_sum              "Ba1 O2 Ti1"
_cell_length_a       3.295715535342291
_cell_length_b       3.2941287630004767
_cell_length_c       6.281652450561523
_cell_angle_alpha    74.84713884238793
_cell_angle_beta     74.81332127647107
_cell_angle_gamma    60.05996516367642

_space_group_name_H-M_alt    "P 1"
_space_group_IT_number       1

loop_
  _space_group_symop_operation_xyz
  'x, y, z'

loop_
  _atom_site_type_symbol
  _atom_site_label
  _atom_site_symmetry_multiplicity
  _atom_site_fract_x
  _atom_site_fract_y
  _atom_site_fract_z
  _atom_site_occupancy
  Ba  Ba1       1.0  0.5300319194793701  0.4878627955913543  0.4888639450073242  1.0000
  O   O1        1.0  0.7524971961975097  0.7101053595542907  0.8215216994285583  1.0000
  Ti  Ti1       1.0  0.03107385896146297  0.9872196316719055  0.988835871219635  1.0000
  O   O2        1.0  0.307752788066864  0.26551127433776855  0.15610772371292114  1.0000
