data_image186
_chemical_formula_structural       Ti3OTiBaOBa
_chemical_formula_sum              "Ti4 O2 Ba2"
_cell_length_a       3.4087837320909546
_cell_length_b       4.881847881567755
_cell_length_c       11.758837699890137
_cell_angle_alpha    102.41941074267163
_cell_angle_beta     90.32089845343043
_cell_angle_gamma    110.41062205336233

_space_group_name_H-M_alt    "P 1"
_space_group_IT_number       1

loop_
  _space_group_symop_operation_xyz
  'x, y, z'

loop_
  _atom_site_type_symbol
  _atom_site_label
  _atom_site_symmetry_multiplicity
  _atom_site_fract_x
  _atom_site_fract_y
  _atom_site_fract_z
  _atom_site_occupancy
  Ti  Ti1       1.0  0.022943438962101874  0.6869772672653197  0.03974262997508047  1.0000
  Ti  Ti2       1.0  0.7217719554901123  0.08700009435415267  0.9815197587013245  1.0000
  Ti  Ti3       1.0  0.36232590675354004  0.37370654940605164  0.8559519052505493  1.0000
  O   O1        1.0  0.4561169445514679  0.563877284526825  0.7070861458778381  1.0000
  Ti  Ti4       1.0  0.0617915615439415  0.7721683979034424  0.7971698641777039  1.0000
  Ba  Ba1       1.0  0.7229225039482117  0.10004213452339172  0.5927582383155823  1.0000
  O   O2        1.0  0.6295187473297119  0.8968215584754943  0.12993545830249784  1.0000
  Ba  Ba2       1.0  0.36450332403182983  0.364665687084198  0.24431897699832916  1.0000
