data_image341
_chemical_formula_structural       BaOBaTiO3
_chemical_formula_sum              "Ba2 O4 Ti1"
_cell_length_a       4.033473433662229
_cell_length_b       4.034043876832193
_cell_length_c       7.333822727203369
_cell_angle_alpha    105.92514763589062
_cell_angle_beta     105.92447138606349
_cell_angle_gamma    90.00057587358313

_space_group_name_H-M_alt    "P 1"
_space_group_IT_number       1

loop_
  _space_group_symop_operation_xyz
  'x, y, z'

loop_
  _atom_site_type_symbol
  _atom_site_label
  _atom_site_symmetry_multiplicity
  _atom_site_fract_x
  _atom_site_fract_y
  _atom_site_fract_z
  _atom_site_occupancy
  Ba  Ba1       1.0  0.37673738598823553  0.10288819670677185  0.7844727039337158  1.0000
  O   O1        1.0  0.23346771299839023  0.4593631625175476  0.4974285066127777  1.0000
  Ba  Ba2       1.0  0.08996233344078064  0.8163667321205138  0.21076063811779022  1.0000
  Ti  Ti1       1.0  0.7336270809173585  0.45979201793670654  0.4977058172225952  1.0000
  O   O2        1.0  0.7334473133087159  0.9595285058021544  0.49743854999542236  1.0000
  O   O3        1.0  0.8813236951828004  0.6074283719062804  0.7931814193725586  1.0000
  O   O4        1.0  0.5855712890625  0.31176087260246277  0.20207911729812622  1.0000
