data_image359
_chemical_formula_structural       BaOTiO
_chemical_formula_sum              "Ba1 O2 Ti1"
_cell_length_a       3.309651637664899
_cell_length_b       3.306764765381801
_cell_length_c       6.282077789306641
_cell_angle_alpha    74.78040767052488
_cell_angle_beta     74.76972419250386
_cell_angle_gamma    60.06251975384201

_space_group_name_H-M_alt    "P 1"
_space_group_IT_number       1

loop_
  _space_group_symop_operation_xyz
  'x, y, z'

loop_
  _atom_site_type_symbol
  _atom_site_label
  _atom_site_symmetry_multiplicity
  _atom_site_fract_x
  _atom_site_fract_y
  _atom_site_fract_z
  _atom_site_occupancy
  Ba  Ba1       1.0  0.4326898455619812  0.12840245664119718  0.0030251680873334403  1.0000
  O   O1        1.0  0.6550894379615786  0.35178989171981806  0.3351656496524811  1.0000
  Ti  Ti1       1.0  0.9324387907981873  0.628018856048584  0.5033125281333923  1.0000
  O   O2        1.0  0.20967279374599457  0.905522346496582  0.6712767481803894  1.0000
