data_image235
_chemical_formula_structural       TiBa2TiO6
_chemical_formula_sum              "Ti2 Ba2 O6"
_cell_length_a       4.111626092945864
_cell_length_b       4.147228765509934
_cell_length_c       7.976528644561768
_cell_angle_alpha    90.00869050548545
_cell_angle_beta     89.9740546170803
_cell_angle_gamma    89.36758165623408

_space_group_name_H-M_alt    "P 1"
_space_group_IT_number       1

loop_
  _space_group_symop_operation_xyz
  'x, y, z'

loop_
  _atom_site_type_symbol
  _atom_site_label
  _atom_site_symmetry_multiplicity
  _atom_site_fract_x
  _atom_site_fract_y
  _atom_site_fract_z
  _atom_site_occupancy
  Ti  Ti1       1.0  0.3837587237358093  0.4138838946819306  0.7925248742103577  1.0000
  Ba  Ba1       1.0  0.8676290512084961  0.8970291018486023  0.542903482913971  1.0000
  Ba  Ba2       1.0  0.8674778342247009  0.8968406915664673  0.04309670627117157  1.0000
  Ti  Ti2       1.0  0.38326093554496765  0.41310828924179077  0.293104350566864  1.0000
  O   O1        1.0  0.34250226616859436  0.36969125270843506  0.5431004166603088  1.0000
  O   O2        1.0  0.349493145942688  0.8578994274139404  0.7929774522781372  1.0000
  O   O3        1.0  0.3510814309120178  0.8578004240989685  0.29272258281707764  1.0000
  O   O4        1.0  0.3419327139854431  0.36919721961021423  0.04285671189427376  1.0000
  O   O5        1.0  0.8334212303161621  0.37639012932777405  0.7927829027175903  1.0000
  O   O6        1.0  0.834179699420929  0.3766975700855255  0.2930627167224884  1.0000
