data_image684
_chemical_formula_structural       Ba2O2TiBa2OTiO3
_chemical_formula_sum              "Ba4 O6 Ti2"
_cell_length_a       4.045158055891613
_cell_length_b       4.04632114015165
_cell_length_c       14.718449592590332
_cell_angle_alpha    89.95626880098463
_cell_angle_beta     89.98457993587283
_cell_angle_gamma    89.99861597603535

_space_group_name_H-M_alt    "P 1"
_space_group_IT_number       1

loop_
  _space_group_symop_operation_xyz
  'x, y, z'

loop_
  _atom_site_type_symbol
  _atom_site_label
  _atom_site_symmetry_multiplicity
  _atom_site_fract_x
  _atom_site_fract_y
  _atom_site_fract_z
  _atom_site_occupancy
  Ba  Ba1       1.0  0.643322229385376  0.9542641043663024  0.9569651484489442  1.0000
  Ba  Ba2       1.0  0.6431174874305725  0.954443871974945  0.6907933354377748  1.0000
  O   O1        1.0  0.6434340476989746  0.9559491872787476  0.49976873397827154  1.0000
  O   O2        1.0  0.14333634078502655  0.45480409264564514  0.6793983578681947  1.0000
  Ti  Ti1       1.0  0.14348387718200684  0.45462262630462646  0.8123865127563478  1.0000
  Ba  Ba3       1.0  0.14381033182144165  0.45632669329643244  0.4883053600788117  1.0000
  Ba  Ba4       1.0  0.14365947246551514  0.45783883333206177  0.22217951714992526  1.0000
  O   O3        1.0  0.14306139945983887  0.9548294544219971  0.8275989294052125  1.0000
  Ti  Ti2       1.0  0.6435686945915222  0.9568415880203247  0.36673626303672796  1.0000
  O   O4        1.0  0.6438294053077698  0.4565683603286743  0.3514141142368317  1.0000
  O   O5        1.0  0.1437138020992279  0.9563761353492737  0.3512082695960999  1.0000
  O   O6        1.0  0.6431893110275269  0.45506909489631653  0.8278473615646363  1.0000
