data_image436
_chemical_formula_structural       BaTiBaOBaTiBaO7Ba2
_chemical_formula_sum              "Ba6 Ti2 O8"
_cell_length_a       5.665727279692182
_cell_length_b       5.668048452926056
_cell_length_c       9.970648765563965
_cell_angle_alpha    90.03445397614166
_cell_angle_beta     89.98720956077665
_cell_angle_gamma    89.9304985009303

_space_group_name_H-M_alt    "P 1"
_space_group_IT_number       1

loop_
  _space_group_symop_operation_xyz
  'x, y, z'

loop_
  _atom_site_type_symbol
  _atom_site_label
  _atom_site_symmetry_multiplicity
  _atom_site_fract_x
  _atom_site_fract_y
  _atom_site_fract_z
  _atom_site_occupancy
  Ba  Ba1       1.0  0.6035537123680115  0.610884428024292  0.3437393009662628  1.0000
  Ti  Ti1       1.0  0.5516217947006226  0.6631520390510559  0.8428350687026978  1.0000
  Ba  Ba2       1.0  0.5998671054840088  0.11411602050065994  0.09408418834209442  1.0000
  O   O1        1.0  0.60968416929245  0.6045275926589966  0.6393116116523743  1.0000
  Ba  Ba3       1.0  0.10327088832855225  0.11237097531557083  0.8420021533966064  1.0000
  Ti  Ti2       1.0  0.051318440586328506  0.16280871629714966  0.3428109288215637  1.0000
  Ba  Ba4       1.0  0.0966804176568985  0.6185653805732727  0.5930035710334778  1.0000
  O   O2        1.0  0.10729033499956131  0.10606333613395691  0.14040935039520264  1.0000
  O   O3        1.0  0.6403205394744873  0.9840537309646606  0.842501163482666  1.0000
  O   O4        1.0  0.22892656922340393  0.5771020650863647  0.8423642516136169  1.0000
  O   O5        1.0  0.1096329316496849  0.1053135097026825  0.5463151335716248  1.0000
  O   O6        1.0  0.7290000915527344  0.07525274902582169  0.3437887728214264  1.0000
  O   O7        1.0  0.6086438894271851  0.6057605743408203  0.044070303440093994  1.0000
  O   O8        1.0  0.13926081359386444  0.4829856753349304  0.3433050215244293  1.0000
  Ba  Ba5       1.0  0.5968278646469116  0.11798837780952454  0.5927541255950928  1.0000
  Ba  Ba6       1.0  0.09916625171899796  0.6150766611099243  0.09264259785413742  1.0000
