data_image627
_chemical_formula_structural       Ba2Ti2BaO7
_chemical_formula_sum              "Ba3 Ti2 O7"
_cell_length_a       4.065432041594927
_cell_length_b       4.0819101635216875
_cell_length_c       11.142492294311523
_cell_angle_alpha    100.50534650735833
_cell_angle_beta     100.38828945781869
_cell_angle_gamma    89.96334477582027

_space_group_name_H-M_alt    "P 1"
_space_group_IT_number       1

loop_
  _space_group_symop_operation_xyz
  'x, y, z'

loop_
  _atom_site_type_symbol
  _atom_site_label
  _atom_site_symmetry_multiplicity
  _atom_site_fract_x
  _atom_site_fract_y
  _atom_site_fract_z
  _atom_site_occupancy
  Ba  Ba1       1.0  0.13939878344535828  0.6116233468055725  0.2806684970855713  1.0000
  Ba  Ba2       1.0  0.9515637159347534  0.4293358027935028  0.9152132868766786  1.0000
  Ti  Ti1       1.0  0.7544158697128296  0.22028015553951263  0.4709085822105408  1.0000
  Ti  Ti2       1.0  0.5230503678321838  0.030897358432412148  0.09016832709312439  1.0000
  Ba  Ba3       1.0  0.32880935072898865  0.7934253215789794  0.64664626121521  1.0000
  O   O1        1.0  0.638648509979248  0.0983472466468811  0.280172735452652  1.0000
  O   O2        1.0  0.7319810390472412  0.6861874461174011  0.46988573670387274  1.0000
  O   O3        1.0  0.4590936303138733  0.9120131731033324  0.9094218611717225  1.0000
  O   O4        1.0  0.5468029975891113  0.4951971471309662  0.09097738564014436  1.0000
  O   O5        1.0  0.8204897046089172  0.28353479504585266  0.6505491733551025  1.0000
  O   O6        1.0  0.05486078932881355  0.0058251568116247645  0.09136693924665452  1.0000
  O   O7        1.0  0.2227029800415039  0.1965370625257492  0.46997505426406866  1.0000
