data_image349
_chemical_formula_structural       Ba3O3TiO5TiBaO2TiO
_chemical_formula_sum              "Ba4 O11 Ti3"
_cell_length_a       3.968350696647366
_cell_length_b       4.015318979771217
_cell_length_c       18.541715621948242
_cell_angle_alpha    89.98663582428647
_cell_angle_beta     89.93353109980589
_cell_angle_gamma    89.97412974946688

_space_group_name_H-M_alt    "P 1"
_space_group_IT_number       1

loop_
  _space_group_symop_operation_xyz
  'x, y, z'

loop_
  _atom_site_type_symbol
  _atom_site_label
  _atom_site_symmetry_multiplicity
  _atom_site_fract_x
  _atom_site_fract_y
  _atom_site_fract_z
  _atom_site_occupancy
  Ba  Ba1       1.0  0.6649914383888245  0.657565712928772  0.14281494915485382  1.0000
  Ba  Ba2       1.0  0.6649917960166931  0.6565640568733214  0.9110829830169678  1.0000
  Ba  Ba3       1.0  0.6674593091011047  0.6572887897491455  0.6746702790260315  1.0000
  O   O1        1.0  0.6648276448249817  0.1571667343378067  0.022681839764118195  1.0000
  O   O2        1.0  0.16483506560325623  0.15798296034336087  0.12842398881912231  1.0000
  O   O3        1.0  0.6667832732200623  0.15719226002693176  0.8008156418800354  1.0000
  Ti  Ti1       1.0  0.16659432649612427  0.15702450275421143  0.7958358526229858  1.0000
  O   O4        1.0  0.1677742898464203  0.15765506029129026  0.45509785413742065  1.0000
  O   O5        1.0  0.16483309864997864  0.6577861309051513  0.022466352209448814  1.0000
  O   O6        1.0  0.16730371117591858  0.1571926176548004  0.6954247951507568  1.0000
  O   O7        1.0  0.16866435110569  0.6578403115272522  0.573417067527771  1.0000
  O   O8        1.0  0.1652921736240387  0.15738360583782196  0.9114186763763428  1.0000
  Ti  Ti2       1.0  0.1648564636707306  0.15735264122486115  0.027731794863939285  1.0000
  Ba  Ba4       1.0  0.1658051759004593  0.15753357112407682  0.32205072045326233  1.0000
  O   O9        1.0  0.16431474685668945  0.6570719480514526  0.25436773896217346  1.0000
  O   O10       1.0  0.1664624661207199  0.6574291586875916  0.8012742400169373  1.0000
  Ti  Ti3       1.0  0.16828757524490356  0.1577066034078598  0.5501259565353394  1.0000
  O   O11       1.0  0.6681365370750427  0.15749335289001465  0.5732169151306152  1.0000
