data_image229
_chemical_formula_structural       OBaTi2O7Ti
_chemical_formula_sum              "O8 Ba1 Ti3"
_cell_length_a       3.9064283196227034
_cell_length_b       6.685415916785702
_cell_length_c       6.733102798461914
_cell_angle_alpha    109.33238062735725
_cell_angle_beta     106.6730139196343
_cell_angle_gamma    90.01700277586072

_space_group_name_H-M_alt    "P 1"
_space_group_IT_number       1

loop_
  _space_group_symop_operation_xyz
  'x, y, z'

loop_
  _atom_site_type_symbol
  _atom_site_label
  _atom_site_symmetry_multiplicity
  _atom_site_fract_x
  _atom_site_fract_y
  _atom_site_fract_z
  _atom_site_occupancy
  O   O1        1.0  0.5483461618423462  0.8371222019195556  0.5944176912307739  1.0000
  Ba  Ba1       1.0  0.7570907473564148  0.11226739734411238  0.012299024499952793  1.0000
  Ti  Ti1       1.0  0.5015646815299988  0.5158413648605347  0.4982635676860809  1.0000
  Ti  Ti2       1.0  0.19172060489654538  0.524982452392578  0.8818084001541138  1.0000
  O   O2        1.0  0.35472017526626587  0.5527207255363464  0.2075719386339187  1.0000
  O   O3        1.0  0.2645716071128845  0.833793580532074  0.026437362655997276  1.0000
  O   O4        1.0  0.16082991659641266  0.24346840381622314  0.818550169467926  1.0000
  O   O5        1.0  0.9166861176490784  0.9127285480499266  0.3309780657291411  1.0000
  O   O6        1.0  0.663385808467865  0.5342626571655272  0.8247634768486023  1.0000
  O   O7        1.0  0.029811164364218712  0.5161643624305725  0.5571826100349426  1.0000
  O   O8        1.0  0.4369496703147888  0.2124582976102829  0.37086233496665955  1.0000
  Ti  Ti3       1.0  0.4217158854007721  0.9094103574752807  0.34219005703926075  1.0000
