data_image737
_chemical_formula_structural       Ba2OTiBaO6Ti
_chemical_formula_sum              "Ba3 O7 Ti2"
_cell_length_a       3.981636359868442
_cell_length_b       4.053536795498712
_cell_length_c       11.536206245422363
_cell_angle_alpha    100.05874061097126
_cell_angle_beta     89.9501899365127
_cell_angle_gamma    89.92783472361228

_space_group_name_H-M_alt    "P 1"
_space_group_IT_number       1

loop_
  _space_group_symop_operation_xyz
  'x, y, z'

loop_
  _atom_site_type_symbol
  _atom_site_label
  _atom_site_symmetry_multiplicity
  _atom_site_fract_x
  _atom_site_fract_y
  _atom_site_fract_z
  _atom_site_occupancy
  Ba  Ba1       1.0  0.9064851999282837  0.38376647233963007  0.5761208534240723  1.0000
  Ba  Ba2       1.0  0.9065247178077698  0.03517676517367363  0.8769389986991881  1.0000
  O   O1        1.0  0.40664106607437134  0.8866434693336486  0.5815757513046265  1.0000
  Ti  Ti1       1.0  0.40642279386520386  0.6182411313056945  0.04397563263773918  1.0000
  Ba  Ba3       1.0  0.9064093232154846  0.20967285335063932  0.22713786363601682  1.0000
  O   O2        1.0  0.4070083200931549  0.30108234286308283  0.40964275598525995  1.0000
  O   O3        1.0  0.4065299928188324  0.532032549381256  0.8713568449020385  1.0000
  O   O4        1.0  0.906814455986023  0.6182847023010253  0.04363897815346718  1.0000
  O   O5        1.0  0.9064236283302307  0.8006164431571959  0.4093766510486602  1.0000
  O   O6        1.0  0.4062386751174927  0.11765750497579573  0.0438193641602993  1.0000
  O   O7        1.0  0.4068235456943512  0.7096035480499266  0.22651030123233792  1.0000
  Ti  Ti2       1.0  0.4068709909915924  0.8014339208602904  0.41019770503044123  1.0000
