data_image302
_chemical_formula_structural       BaTi2O2BaO5
_chemical_formula_sum              "Ba2 Ti2 O7"
_cell_length_a       5.931083215702509
_cell_length_b       5.934409364782834
_cell_length_c       6.547085762023926
_cell_angle_alpha    98.11502633319364
_cell_angle_beta     115.5509954795352
_cell_angle_gamma    111.54427449137181

_space_group_name_H-M_alt    "P 1"
_space_group_IT_number       1

loop_
  _space_group_symop_operation_xyz
  'x, y, z'

loop_
  _atom_site_type_symbol
  _atom_site_label
  _atom_site_symmetry_multiplicity
  _atom_site_fract_x
  _atom_site_fract_y
  _atom_site_fract_z
  _atom_site_occupancy
  Ba  Ba1       1.0  0.11590708047151567  0.6981502175331116  0.6066058874130249  1.0000
  Ti  Ti1       1.0  0.6062697768211365  0.4257950782775879  0.8235334157943724  1.0000
  Ti  Ti2       1.0  0.6269745230674744  0.9714573621749878  0.39029929041862493  1.0000
  O   O1        1.0  0.2255879491567612  0.2658390700817108  0.7467831969261168  1.0000
  O   O2        1.0  0.8375890254974366  0.49483823776245117  0.1273547261953354  1.0000
  Ba  Ba2       1.0  0.11687427014112474  0.1988135725259781  0.10720594227313994  1.0000
  O   O3        1.0  0.6160697340965271  0.19835299253463742  0.6065822839736938  1.0000
  O   O4        1.0  0.6920969486236572  0.7304663062095642  0.7483267188072203  1.0000
  O   O5        1.0  0.5413090586662292  0.6659279465675354  0.4642470180988311  1.0000
  O   O6        1.0  0.006202938035130497  0.1312403380870819  0.46562939882278437  1.0000
  O   O7        1.0  0.3951005637645721  0.9014341235160827  0.08562579751014708  1.0000
