data_image288
_chemical_formula_structural       BaO2
_chemical_formula_sum              "Ba1 O2"
_cell_length_a       3.866739831643959
_cell_length_b       3.8668679241166863
_cell_length_c       4.418671607971191
_cell_angle_alpha    115.9858333269199
_cell_angle_beta     115.95341788247424
_cell_angle_gamma    89.99207821359424

_space_group_name_H-M_alt    "P 1"
_space_group_IT_number       1

loop_
  _space_group_symop_operation_xyz
  'x, y, z'

loop_
  _atom_site_type_symbol
  _atom_site_label
  _atom_site_symmetry_multiplicity
  _atom_site_fract_x
  _atom_site_fract_y
  _atom_site_fract_z
  _atom_site_occupancy
  Ba  Ba1       1.0  0.44797223806381226  0.7864904403686525  0.20881490409374237  1.0000
  O   O1        1.0  0.05631711333990097  0.3948633670806885  0.4255950450897217  1.0000
  O   O2        1.0  0.8398503065109253  0.1780328005552292  0.9921782612800598  1.0000
