data_image595
_chemical_formula_structural       BaTiO2
_chemical_formula_sum              "Ba1 Ti1 O2"
_cell_length_a       3.2840783107913767
_cell_length_b       3.283568498531078
_cell_length_c       6.466996669769287
_cell_angle_alpha    75.30900871557155
_cell_angle_beta     75.26242779969857
_cell_angle_gamma    59.94210291424844

_space_group_name_H-M_alt    "P 1"
_space_group_IT_number       1

loop_
  _space_group_symop_operation_xyz
  'x, y, z'

loop_
  _atom_site_type_symbol
  _atom_site_label
  _atom_site_symmetry_multiplicity
  _atom_site_fract_x
  _atom_site_fract_y
  _atom_site_fract_z
  _atom_site_occupancy
  Ba  Ba1       1.0  0.5226941108703614  0.714310348033905  0.7948502898216248  1.0000
  Ti  Ti1       1.0  0.3491091430187225  0.5413880348205568  0.3157776892185211  1.0000
  O   O1        1.0  0.9606192111968994  0.15269581973552707  0.48044368624687195  1.0000
  O   O2        1.0  0.7386257648468018  0.93093740940094  0.14670032262802124  1.0000
