data_image447
_chemical_formula_structural       BaTi2O2BaO4
_chemical_formula_sum              "Ba2 Ti2 O6"
_cell_length_a       4.2482595725774726
_cell_length_b       5.668063286504657
_cell_length_c       5.660300254821777
_cell_angle_alpha    90.05878993716814
_cell_angle_beta     89.99339771151561
_cell_angle_gamma    89.98990065447563

_space_group_name_H-M_alt    "P 1"
_space_group_IT_number       1

loop_
  _space_group_symop_operation_xyz
  'x, y, z'

loop_
  _atom_site_type_symbol
  _atom_site_label
  _atom_site_symmetry_multiplicity
  _atom_site_fract_x
  _atom_site_fract_y
  _atom_site_fract_z
  _atom_site_occupancy
  Ba  Ba1       1.0  0.6089431047439575  0.26224669814109797  0.6055885553359985  1.0000
  Ti  Ti1       1.0  0.09112272411584854  0.7625392675399779  0.6050958633422852  1.0000
  Ti  Ti2       1.0  0.09048287570476532  0.26244038343429565  0.10597293078899385  1.0000
  O   O1        1.0  0.14577911794185638  0.012237919494509695  0.8551872372627259  1.0000
  O   O2        1.0  0.6681730151176453  0.2618808150291443  0.10513279587030412  1.0000
  Ba  Ba2       1.0  0.6095936298370361  0.7615865468978882  0.10502140969038011  1.0000
  O   O3        1.0  0.14510364830493927  0.5124335289001464  0.8547663092613221  1.0000
  O   O4        1.0  0.1450725495815277  0.012544703669846056  0.35489621758461  1.0000
  O   O5        1.0  0.1450604498386383  0.5118622183799744  0.35507825016975403  1.0000
  O   O6        1.0  0.6678066849708557  0.7620146870613098  0.6052017211914062  1.0000
