data_image549
_chemical_formula_structural       BaO2
_chemical_formula_sum              "Ba1 O2"
_cell_length_a       3.8701237519865805
_cell_length_b       3.8658812379499605
_cell_length_c       4.408451080322266
_cell_angle_alpha    115.96894804837852
_cell_angle_beta     115.98217045450787
_cell_angle_gamma    89.98797478788342

_space_group_name_H-M_alt    "P 1"
_space_group_IT_number       1

loop_
  _space_group_symop_operation_xyz
  'x, y, z'

loop_
  _atom_site_type_symbol
  _atom_site_label
  _atom_site_symmetry_multiplicity
  _atom_site_fract_x
  _atom_site_fract_y
  _atom_site_fract_z
  _atom_site_occupancy
  Ba  Ba1       1.0  0.6880348920822144  0.5008434057235718  0.509782612323761  1.0000
  O   O1        1.0  0.29651734232902527  0.10904725641012193  0.7262373566627502  1.0000
  O   O2        1.0  0.07984264194965363  0.892731249332428  0.29304552078247076  1.0000
