data_image316
_chemical_formula_structural       TiBaTi2OTiO6
_chemical_formula_sum              "Ti4 Ba1 O7"
_cell_length_a       4.1229416684753275
_cell_length_b       4.124463582452713
_cell_length_c       8.744820594787598
_cell_angle_alpha    103.52109975492002
_cell_angle_beta     103.55924598805909
_cell_angle_gamma    89.91556775658006

_space_group_name_H-M_alt    "P 1"
_space_group_IT_number       1

loop_
  _space_group_symop_operation_xyz
  'x, y, z'

loop_
  _atom_site_type_symbol
  _atom_site_label
  _atom_site_symmetry_multiplicity
  _atom_site_fract_x
  _atom_site_fract_y
  _atom_site_fract_z
  _atom_site_occupancy
  Ti  Ti1       1.0  0.17327094078063965  0.4429304897785187  0.1408282071352005  1.0000
  Ba  Ba1       1.0  0.7918838858604431  0.060944836586713784  0.37845149636268616  1.0000
  Ti  Ti2       1.0  0.04164130613207817  0.8109039664268494  0.8780750632286072  1.0000
  Ti  Ti3       1.0  0.41032737493515015  0.6792165637016296  0.6152997016906738  1.0000
  O   O1        1.0  0.044749218970537186  0.31459009647369385  0.8849836587905884  1.0000
  Ti  Ti4       1.0  0.5411291122436522  0.3103190064430236  0.8771096467971802  1.0000
  O   O2        1.0  0.29164716601371765  0.5608373880386353  0.37781304121017456  1.0000
  O   O3        1.0  0.416556179523468  0.18536882102489471  0.6281665563583374  1.0000
  O   O4        1.0  0.6668831706047058  0.43606495857238764  0.12802162766456604  1.0000
  O   O5        1.0  0.16648803651332855  0.9364330768585204  0.12786903977394104  1.0000
  O   O6        1.0  0.91645747423172  0.6859261989593506  0.6281692385673523  1.0000
  O   O7        1.0  0.5386048555374146  0.8082653284072876  0.8719771504402161  1.0000
