data_image730
_chemical_formula_structural       BaTiOBaO2TiO
_chemical_formula_sum              "Ba2 Ti2 O4"
_cell_length_a       4.142003387143285
_cell_length_b       5.844567764807218
_cell_length_c       6.290912628173828
_cell_angle_alpha    117.9591569372093
_cell_angle_beta     109.14460624683835
_cell_angle_gamma    89.96308458085

_space_group_name_H-M_alt    "P 1"
_space_group_IT_number       1

loop_
  _space_group_symop_operation_xyz
  'x, y, z'

loop_
  _atom_site_type_symbol
  _atom_site_label
  _atom_site_symmetry_multiplicity
  _atom_site_fract_x
  _atom_site_fract_y
  _atom_site_fract_z
  _atom_site_occupancy
  Ba  Ba1       1.0  0.8714801073074341  0.35794058442115784  0.5048527717590333  1.0000
  Ti  Ti1       1.0  0.616188645362854  0.6040089130401611  0.9945288300514221  1.0000
  O   O1        1.0  0.4729464054107666  0.2096827179193497  0.7074899673461914  1.0000
  Ba  Ba2       1.0  0.0755080133676529  0.06266423314809799  0.9118959307670593  1.0000
  O   O2        1.0  0.47343870997428894  0.7099431157112122  0.7081953883171082  1.0000
  O   O3        1.0  0.8159628510475159  0.800509512424469  0.3925580084323883  1.0000
  Ti  Ti2       1.0  0.33090853691101074  0.8158522844314576  0.42221006751060497  1.0000
  O   O4        1.0  0.13094669580459595  0.6187378764152527  0.02429659292101864  1.0000
