data_image692
_chemical_formula_structural       BaO2TiO2
_chemical_formula_sum              "Ba1 O4 Ti1"
_cell_length_a       3.9023797966405493
_cell_length_b       3.9124985619753336
_cell_length_c       5.414031505584717
_cell_angle_alpha    90.05047760526637
_cell_angle_beta     89.954370008117
_cell_angle_gamma    90.02918107278056

_space_group_name_H-M_alt    "P 1"
_space_group_IT_number       1

loop_
  _space_group_symop_operation_xyz
  'x, y, z'

loop_
  _atom_site_type_symbol
  _atom_site_label
  _atom_site_symmetry_multiplicity
  _atom_site_fract_x
  _atom_site_fract_y
  _atom_site_fract_z
  _atom_site_occupancy
  Ba  Ba1       1.0  0.49595755338668823  0.6669834852218628  0.6389461755752563  1.0000
  O   O1        1.0  0.9952629804611206  0.1673310548067093  0.7773504257202148  1.0000
  O   O2        1.0  0.9956516027450562  0.6679206490516663  0.13951976597309113  1.0000
  Ti  Ti1       1.0  0.9957841634750366  0.16758251190185544  0.13869504630565643  1.0000
  O   O3        1.0  0.9951126575469971  0.16836796700954437  0.5016021132469177  1.0000
  O   O4        1.0  0.49534672498703003  0.16751323640346524  0.13938185572624207  1.0000
