data_image299
_chemical_formula_structural       Ba4O2TiO
_chemical_formula_sum              "Ba4 O3 Ti1"
_cell_length_a       6.2334069451473795
_cell_length_b       6.251432599016057
_cell_length_c       7.7767744064331055
_cell_angle_alpha    66.76757034929223
_cell_angle_beta     66.66763022422002
_cell_angle_gamma    60.30730011691594

_space_group_name_H-M_alt    "P 1"
_space_group_IT_number       1

loop_
  _space_group_symop_operation_xyz
  'x, y, z'

loop_
  _atom_site_type_symbol
  _atom_site_label
  _atom_site_symmetry_multiplicity
  _atom_site_fract_x
  _atom_site_fract_y
  _atom_site_fract_z
  _atom_site_occupancy
  Ba  Ba1       1.0  0.4303417801856995  0.2121281921863556  0.46408009529113764  1.0000
  Ba  Ba2       1.0  0.961874544620514  0.7434114217758179  0.870115280151367  1.0000
  Ba  Ba3       1.0  0.20973569154739383  0.9917426109313965  0.1250925064086914  1.0000
  Ba  Ba4       1.0  0.7848964333534241  0.5674131512641907  0.4007180035114288  1.0000
  O   O1        1.0  0.6950523257255554  0.009643861092627048  0.13830184936523435  1.0000
  O   O2        1.0  0.6950996518135071  0.47685566544532776  0.13691335916519165  1.0000
  Ti  Ti1       1.0  0.5809844732284546  0.3625291883945465  0.011604546569287775  1.0000
  O   O3        1.0  0.22783803939819333  0.4766164720058441  0.1382923126220703  1.0000
