data_image513
_chemical_formula_structural       BaO3Ti2OBaO
_chemical_formula_sum              "Ba2 O5 Ti2"
_cell_length_a       3.985866863999994
_cell_length_b       5.833895027507642
_cell_length_c       5.835758686065674
_cell_angle_alpha    87.46068869899113
_cell_angle_beta     89.98859608865888
_cell_angle_gamma    89.99781001377923

_space_group_name_H-M_alt    "P 1"
_space_group_IT_number       1

loop_
  _space_group_symop_operation_xyz
  'x, y, z'

loop_
  _atom_site_type_symbol
  _atom_site_label
  _atom_site_symmetry_multiplicity
  _atom_site_fract_x
  _atom_site_fract_y
  _atom_site_fract_z
  _atom_site_occupancy
  Ba  Ba1       1.0  0.10585127770900726  0.18182070553302762  0.6959651112556458  1.0000
  O   O1        1.0  0.10573343187570572  0.18865622580051422  0.21024425327777863  1.0000
  O   O2        1.0  0.6061834692955017  0.9282097220420837  0.4497721493244171  1.0000
  O   O3        1.0  0.6059824824333191  0.42820742726325983  0.949858844280243  1.0000
  Ti  Ti1       1.0  0.6053292751312256  0.6941307187080382  0.7145376801490784  1.0000
  Ti  Ti2       1.0  0.6067560315132141  0.16243496537208557  0.18384815752506256  1.0000
  O   O4        1.0  0.6054307222366333  0.9284927248954772  0.9496077895164489  1.0000
  Ba  Ba2       1.0  0.10574818402528763  0.6746819615364074  0.2032977193593979  1.0000
  O   O5        1.0  0.10643024742603302  0.6671043038368225  0.6887481808662415  1.0000
