data_image320
_chemical_formula_structural       BaO2TiBaOBaOTiO3
_chemical_formula_sum              "Ba3 O7 Ti2"
_cell_length_a       4.071780713129877
_cell_length_b       4.0667467492249685
_cell_length_c       11.101861953735352
_cell_angle_alpha    100.5077430878679
_cell_angle_beta     100.53063827164765
_cell_angle_gamma    90.02364167533787

_space_group_name_H-M_alt    "P 1"
_space_group_IT_number       1

loop_
  _space_group_symop_operation_xyz
  'x, y, z'

loop_
  _atom_site_type_symbol
  _atom_site_label
  _atom_site_symmetry_multiplicity
  _atom_site_fract_x
  _atom_site_fract_y
  _atom_site_fract_z
  _atom_site_occupancy
  Ba  Ba1       1.0  0.2445407658815384  0.39699476957321167  0.165867418050766  1.0000
  O   O1        1.0  0.6625584363937378  0.3243762254714966  0.9882103204727174  1.0000
  O   O2        1.0  0.7575728297233582  0.9085782170295716  0.1716192364692688  1.0000
  Ti  Ti1       1.0  0.45024892687797546  0.6405048966407777  0.6090292930603027  1.0000
  Ba  Ba2       1.0  0.8772868514060974  0.03916673362255097  0.432951956987381  1.0000
  O   O3        1.0  0.38624364137649536  0.5269516110420227  0.42803478240966797  1.0000
  Ba  Ba3       1.0  0.05770697444677353  0.21785932779312134  0.7992894649505615  1.0000
  O   O4        1.0  0.9857072234153748  0.6195213198661805  0.6110556125640869  1.0000
  Ti  Ti2       1.0  0.6428573131561279  0.7961571216583253  0.9897989034652711  1.0000
  O   O5        1.0  0.47551897168159485  0.11008886247873306  0.6109413504600525  1.0000
  O   O6        1.0  0.17301876842975616  0.8154486417770386  0.9882534742355348  1.0000
  O   O7        1.0  0.5712295174598694  0.7180024981498718  0.8001397252082825  1.0000
