data_image304
_chemical_formula_structural       Ba2OTi2OBaO5
_chemical_formula_sum              "Ba3 O7 Ti2"
_cell_length_a       4.063997280868809
_cell_length_b       4.073451055150028
_cell_length_c       11.11135196685791
_cell_angle_alpha    100.53302199478195
_cell_angle_beta     100.50577597736353
_cell_angle_gamma    89.86565257047997

_space_group_name_H-M_alt    "P 1"
_space_group_IT_number       1

loop_
  _space_group_symop_operation_xyz
  'x, y, z'

loop_
  _atom_site_type_symbol
  _atom_site_label
  _atom_site_symmetry_multiplicity
  _atom_site_fract_x
  _atom_site_fract_y
  _atom_site_fract_z
  _atom_site_occupancy
  Ba  Ba1       1.0  0.14568643271923065  0.6139850020408629  0.23942871391773224  1.0000
  Ba  Ba2       1.0  0.9596787691116334  0.4259212911128998  0.8734536170959473  1.0000
  O   O1        1.0  0.7385401129722596  0.6962975859642028  0.4292204976081848  1.0000
  Ti  Ti1       1.0  0.5358355045318604  0.002444889396429062  0.04957016557455063  1.0000
  Ti  Ti2       1.0  0.758198916912079  0.22729112207889554  0.430218905210495  1.0000
  O   O2        1.0  0.5558056235313416  0.5293941497802734  0.05008162930607796  1.0000
  Ba  Ba3       1.0  0.33323535323143005  0.8024823665618896  0.6061506867408752  1.0000
  O   O3        1.0  0.0626642182469368  0.022923292592167854  0.05000010132789612  1.0000
  O   O4        1.0  0.6477749347686768  0.11346544325351715  0.23951788246631622  1.0000
  O   O5        1.0  0.46655610203742987  0.932792067527771  0.8688852787017822  1.0000
  O   O6        1.0  0.828049123287201  0.29388362169265747  0.6109872460365295  1.0000
  O   O7        1.0  0.2328973561525345  0.2034209668636322  0.42925405502319336  1.0000
