data_image19
_chemical_formula_structural       Ba3OTiBa2OTiO5
_chemical_formula_sum              "Ba5 O7 Ti2"
_cell_length_a       6.945547009600764
_cell_length_b       6.643679250994273
_cell_length_c       7.139581680297852
_cell_angle_alpha    83.70947338457378
_cell_angle_beta     79.15248773580156
_cell_angle_gamma    69.41020566873374

_space_group_name_H-M_alt    "P 1"
_space_group_IT_number       1

loop_
  _space_group_symop_operation_xyz
  'x, y, z'

loop_
  _atom_site_type_symbol
  _atom_site_label
  _atom_site_symmetry_multiplicity
  _atom_site_fract_x
  _atom_site_fract_y
  _atom_site_fract_z
  _atom_site_occupancy
  Ba  Ba1       1.0  0.05215076357126236  0.7112306952476501  0.2580128610134125  1.0000
  Ba  Ba2       1.0  0.553653597831726  0.7245615124702454  0.11131466925144196  1.0000
  Ba  Ba3       1.0  0.3029051721096039  0.7185060381889342  0.684140145778656  1.0000
  O   O1        1.0  0.47523635625839233  0.012006040662527084  0.8033138513565063  1.0000
  Ti  Ti1       1.0  0.0017947913147509098  0.2602914869785309  0.4705451726913452  1.0000
  Ba  Ba4       1.0  0.07984266430139542  0.2477794587612152  0.946693480014801  1.0000
  Ba  Ba5       1.0  0.5244156122207642  0.18929840624332425  0.4222255349159241  1.0000
  O   O2        1.0  0.8018975257873535  0.21874621510505673  0.6839929223060608  1.0000
  Ti  Ti2       1.0  0.603257417678833  0.17585189640522003  0.8977554440498352  1.0000
  O   O3        1.0  0.3871401250362396  0.42775759100913996  0.9982727766036987  1.0000
  O   O4        1.0  0.21791350841522217  0.008709733374416828  0.36925724148750305  1.0000
  O   O5        1.0  0.7440296411514282  0.0260136891156435  0.08672521263360976  1.0000
  O   O6        1.0  0.8625966310501099  0.41043180227279663  0.2808073163032532  1.0000
  O   O7        1.0  0.13011430203914642  0.4249947965145111  0.5649622082710266  1.0000
