data_image353
_chemical_formula_structural       BaO2Ti
_chemical_formula_sum              "Ba1 O2 Ti1"
_cell_length_a       3.3299517386689046
_cell_length_b       3.3279065575972364
_cell_length_c       6.31553316116333
_cell_angle_alpha    74.75670588151439
_cell_angle_beta     74.73303375212198
_cell_angle_gamma    59.99954703656467

_space_group_name_H-M_alt    "P 1"
_space_group_IT_number       1

loop_
  _space_group_symop_operation_xyz
  'x, y, z'

loop_
  _atom_site_type_symbol
  _atom_site_label
  _atom_site_symmetry_multiplicity
  _atom_site_fract_x
  _atom_site_fract_y
  _atom_site_fract_z
  _atom_site_occupancy
  Ba  Ba1       1.0  0.8268587589263915  0.4688786864280701  0.44546863436698914  1.0000
  O   O1        1.0  0.049458283931016936  0.6913727521896362  0.7776514887809753  1.0000
  O   O2        1.0  0.6043460965156555  0.24674847722053528  0.11199118196964264  1.0000
  Ti  Ti1       1.0  0.3267748057842256  0.9690366387367249  0.9435718059539795  1.0000
