data_image441
_chemical_formula_structural       BaOTiO2
_chemical_formula_sum              "Ba1 O3 Ti1"
_cell_length_a       4.064603156851401
_cell_length_b       4.070869303414946
_cell_length_c       4.066474437713623
_cell_angle_alpha    89.82747875985919
_cell_angle_beta     89.84890507569781
_cell_angle_gamma    89.79867585888809

_space_group_name_H-M_alt    "P 1"
_space_group_IT_number       1

loop_
  _space_group_symop_operation_xyz
  'x, y, z'

loop_
  _atom_site_type_symbol
  _atom_site_label
  _atom_site_symmetry_multiplicity
  _atom_site_fract_x
  _atom_site_fract_y
  _atom_site_fract_z
  _atom_site_occupancy
  Ba  Ba1       1.0  0.2682371139526367  0.5692484974861145  0.49169960618019104  1.0000
  O   O1        1.0  0.2958575487136841  0.08778546005487442  0.008925563655793667  1.0000
  Ti  Ti1       1.0  0.7528248429298401  0.05340985953807831  0.9755122065544128  1.0000
  O   O2        1.0  0.7839629650115967  0.5986653566360474  0.0083799809217453  1.0000
  O   O3        1.0  0.7832030057907104  0.08682101219892502  0.5200902223587036  1.0000
