data_image123
_chemical_formula_structural       O2BaOTiO2TiBaOBaO
_chemical_formula_sum              "O7 Ba3 Ti2"
_cell_length_a       3.9899834453560303
_cell_length_b       3.9899253157407966
_cell_length_c       13.126566886901855
_cell_angle_alpha    90.25727525626624
_cell_angle_beta     90.31099468256105
_cell_angle_gamma    89.95109152122134

_space_group_name_H-M_alt    "P 1"
_space_group_IT_number       1

loop_
  _space_group_symop_operation_xyz
  'x, y, z'

loop_
  _atom_site_type_symbol
  _atom_site_label
  _atom_site_symmetry_multiplicity
  _atom_site_fract_x
  _atom_site_fract_y
  _atom_site_fract_z
  _atom_site_occupancy
  O   O1        1.0  0.43168506026268  0.7260529398918151  0.5107325911521912  1.0000
  O   O2        1.0  0.9294397234916686  0.7246232032775879  0.3573679625988007  1.0000
  Ba  Ba1       1.0  0.9265340566635131  0.2223744839429855  0.1986910849809647  1.0000
  O   O3        1.0  0.42657473683357233  0.7222162485122681  0.19867449998855588  1.0000
  Ti  Ti1       1.0  0.42951479554176325  0.7241166830062866  0.35988894104957586  1.0000
  O   O4        1.0  0.4208428263664245  0.7178815603256226  0.8881520628929139  1.0000
  O   O5        1.0  0.9235405921936034  0.7197594046592711  0.03942567482590676  1.0000
  Ti  Ti2       1.0  0.4233416318893432  0.7197326421737671  0.03758210688829422  1.0000
  Ba  Ba2       1.0  0.9210208058357238  0.2179100066423416  0.8890382647514344  1.0000
  O   O6        1.0  0.4236841201782226  0.21958860754966736  0.03946392238140107  1.0000
  Ba  Ba3       1.0  0.9312250614166259  0.22555957734584808  0.5074833631515503  1.0000
  O   O7        1.0  0.429429143667221  0.22447139024734497  0.357612818479538  1.0000
