data_image644
_chemical_formula_structural       BaTi3BaTiO2
_chemical_formula_sum              "Ba2 Ti4 O2"
_cell_length_a       4.160418473454363
_cell_length_b       4.168282707736546
_cell_length_c       9.93953800201416
_cell_angle_alpha    90.01769952636174
_cell_angle_beta     90.02634654372893
_cell_angle_gamma    90.03222050571583

_space_group_name_H-M_alt    "P 1"
_space_group_IT_number       1

loop_
  _space_group_symop_operation_xyz
  'x, y, z'

loop_
  _atom_site_type_symbol
  _atom_site_label
  _atom_site_symmetry_multiplicity
  _atom_site_fract_x
  _atom_site_fract_y
  _atom_site_fract_z
  _atom_site_occupancy
  Ba  Ba1       1.0  0.23383672535419464  0.36734530329704285  0.6215489506721497  1.0000
  Ti  Ti1       1.0  0.23315586149692535  0.8669378161430359  0.26283296942710876  1.0000
  Ti  Ti2       1.0  0.23367314040660858  0.36748844385147095  0.08391933143138885  1.0000
  Ti  Ti3       1.0  0.7340087294578552  0.3670286238193512  0.2631029188632965  1.0000
  Ba  Ba2       1.0  0.732769250869751  0.8669151663780212  0.9054812788963318  1.0000
  Ti  Ti4       1.0  0.7331224083900452  0.8673677444458008  0.44244691729545593  1.0000
  O   O1        1.0  0.23334529995918274  0.3673497140407562  0.8874033689498901  1.0000
  O   O2        1.0  0.7332649230957031  0.8673354983329773  0.6395590901374817  1.0000
