data_image354
_chemical_formula_structural       BaTiO2
_chemical_formula_sum              "Ba1 Ti1 O2"
_cell_length_a       3.3095829003191026
_cell_length_b       3.309893991130998
_cell_length_c       6.293221950531006
_cell_angle_alpha    74.79101384926625
_cell_angle_beta     74.77216255896134
_cell_angle_gamma    60.03969243591772

_space_group_name_H-M_alt    "P 1"
_space_group_IT_number       1

loop_
  _space_group_symop_operation_xyz
  'x, y, z'

loop_
  _atom_site_type_symbol
  _atom_site_label
  _atom_site_symmetry_multiplicity
  _atom_site_fract_x
  _atom_site_fract_y
  _atom_site_fract_z
  _atom_site_occupancy
  Ba  Ba1       1.0  0.6558821201324463  0.8701695203781128  0.3022909164428711  1.0000
  Ti  Ti1       1.0  0.15616050362586978  0.3696175813674927  0.8025370240211487  1.0000
  O   O1        1.0  0.8786738514900208  0.09368644654750824  0.6335150599479675  1.0000
  O   O2        1.0  0.43258425593376154  0.6470453143119812  0.9713153839111328  1.0000
