data_image626
_chemical_formula_structural       Ba4OBaTi2O3BaO4
_chemical_formula_sum              "Ba6 O8 Ti2"
_cell_length_a       5.9417063743923295
_cell_length_b       7.382452061206521
_cell_length_c       8.234358787536621
_cell_angle_alpha    90.17242380114125
_cell_angle_beta     90.07040126108485
_cell_angle_gamma    89.92851773924829

_space_group_name_H-M_alt    "P 1"
_space_group_IT_number       1

loop_
  _space_group_symop_operation_xyz
  'x, y, z'

loop_
  _atom_site_type_symbol
  _atom_site_label
  _atom_site_symmetry_multiplicity
  _atom_site_fract_x
  _atom_site_fract_y
  _atom_site_fract_z
  _atom_site_occupancy
  Ba  Ba1       1.0  0.03902965039014816  0.40081971883773804  0.025164354592561722  1.0000
  Ba  Ba2       1.0  0.036924097687006  0.9185951948165895  0.7710692286491394  1.0000
  Ba  Ba3       1.0  0.5192291140556335  0.6031997203826905  0.2723514437675476  1.0000
  Ba  Ba4       1.0  0.03860828652977943  0.9180024266242982  0.2780162990093231  1.0000
  O   O1        1.0  0.4736715257167816  0.9831768274307252  0.8268101811408997  1.0000
  Ba  Ba5       1.0  0.5193832516670227  0.6035626530647279  0.7775527238845825  1.0000
  Ti  Ti1       1.0  0.9900230765342712  0.42783391475677496  0.5247873663902283  1.0000
  Ti  Ti2       1.0  0.567512571811676  0.09479615837335587  0.02448080480098724  1.0000
  O   O2        1.0  0.8813365697860718  0.08165974915027618  0.024724775925278664  1.0000
  O   O3        1.0  0.5129692554473877  0.34970605373382574  0.024918923154473305  1.0000
  O   O4        1.0  0.4765176475048065  0.9824414253234863  0.22169600427150726  1.0000
  Ba  Ba6       1.0  0.5181956887245178  0.12101906538009644  0.5244045853614807  1.0000
  O   O5        1.0  0.08392150700092316  0.5372693538665771  0.7234722375869751  1.0000
  O   O6        1.0  0.6756026148796082  0.43986803293228155  0.5246427655220032  1.0000
  O   O7        1.0  0.0439387746155262  0.17293664813041687  0.524661123752594  1.0000
  O   O8        1.0  0.08000696450471878  0.5374742150306702  0.3251756429672241  1.0000
