data_image357
_chemical_formula_structural       BaOBaTiOTiO4
_chemical_formula_sum              "Ba2 O6 Ti2"
_cell_length_a       5.3672326794176115
_cell_length_b       5.378859907327475
_cell_length_c       7.12407112121582
_cell_angle_alpha    88.45105893593491
_cell_angle_beta     111.58054590879698
_cell_angle_gamma    93.74199685151176

_space_group_name_H-M_alt    "P 1"
_space_group_IT_number       1

loop_
  _space_group_symop_operation_xyz
  'x, y, z'

loop_
  _atom_site_type_symbol
  _atom_site_label
  _atom_site_symmetry_multiplicity
  _atom_site_fract_x
  _atom_site_fract_y
  _atom_site_fract_z
  _atom_site_occupancy
  Ba  Ba1       1.0  0.6464763283729553  0.5550143122673034  0.053156286478042575  1.0000
  O   O1        1.0  0.08170806616544724  0.26951155066490173  0.710896134376526  1.0000
  Ba  Ba2       1.0  0.3916299343109131  0.0558619387447834  0.536042332649231  1.0000
  Ti  Ti1       1.0  0.08620230853557587  0.08579878509044647  0.9411656260490419  1.0000
  O   O2        1.0  0.7536682486534119  0.07520242780447006  0.9419839382171632  1.0000
  Ti  Ti2       1.0  0.9430456161499023  0.5866301655769348  0.6471872925758363  1.0000
  O   O3        1.0  0.32180213928222656  0.21963761746883392  0.16662639379501346  1.0000
  O   O4        1.0  0.165590763092041  0.7696175575256347  0.8762575984001161  1.0000
  O   O5        1.0  0.9577404856681824  0.7162113189697266  0.4204170107841492  1.0000
  O   O6        1.0  0.6094867587089539  0.5773446559906006  0.6461457610130311  1.0000
