data_image532
_chemical_formula_structural       TiOBaOBaOBaTiO4
_chemical_formula_sum              "Ti2 O7 Ba3"
_cell_length_a       4.080667609389485
_cell_length_b       4.070314471691442
_cell_length_c       11.085718154907227
_cell_angle_alpha    100.51192281446907
_cell_angle_beta     100.57736325498169
_cell_angle_gamma    90.05641327629034

_space_group_name_H-M_alt    "P 1"
_space_group_IT_number       1

loop_
  _space_group_symop_operation_xyz
  'x, y, z'

loop_
  _atom_site_type_symbol
  _atom_site_label
  _atom_site_symmetry_multiplicity
  _atom_site_fract_x
  _atom_site_fract_y
  _atom_site_fract_z
  _atom_site_occupancy
  Ti  Ti1       1.0  0.692237913608551  0.5094940662384033  0.7369692921638489  1.0000
  O   O1        1.0  0.5765036344528198  0.4419784247875214  0.5564817786216736  1.0000
  Ba  Ba1       1.0  0.27426251769065857  0.12312903255224229  0.9269835948944092  1.0000
  O   O2        1.0  0.6704776883125305  0.0400940366089344  0.7376382350921631  1.0000
  Ba  Ba2       1.0  0.4558318257331848  0.31086286902427673  0.29399600625038147  1.0000
  O   O3        1.0  0.1593465507030487  0.5317012071609497  0.7377820611000061  1.0000
  Ba  Ba3       1.0  0.09042728692293167  0.9353516697883606  0.561244547367096  1.0000
  Ti  Ti2       1.0  0.8825648427009583  0.7366548776626587  0.11746134608983994  1.0000
  O   O4        1.0  0.9472854137420654  0.8037346601486207  0.2989000380039215  1.0000
  O   O5        1.0  0.3473512530326843  0.7131540179252625  0.11640570312738419  1.0000
  O   O6        1.0  0.7615430951118469  0.6221567392349244  0.9265888333320618  1.0000
  O   O7        1.0  0.8583892583847046  0.20536521077156067  0.11683742702007294  1.0000
