data_image704
_chemical_formula_structural       TiBaTiO2BaO2
_chemical_formula_sum              "Ti2 Ba2 O4"
_cell_length_a       4.130408621127959
_cell_length_b       5.845161746229225
_cell_length_c       6.287630558013916
_cell_angle_alpha    117.72154693979545
_cell_angle_beta     109.10037324383876
_cell_angle_gamma    89.98916939628434

_space_group_name_H-M_alt    "P 1"
_space_group_IT_number       1

loop_
  _space_group_symop_operation_xyz
  'x, y, z'

loop_
  _atom_site_type_symbol
  _atom_site_label
  _atom_site_symmetry_multiplicity
  _atom_site_fract_x
  _atom_site_fract_y
  _atom_site_fract_z
  _atom_site_occupancy
  Ti  Ti1       1.0  0.9104627370834352  0.025435280054807663  0.8206309080123901  1.0000
  Ba  Ba1       1.0  0.16574169695377353  0.7799421548843385  0.33104422688484203  1.0000
  Ti  Ti2       1.0  0.6244128346443176  0.23777231574058535  0.24621130526065832  1.0000
  O   O1        1.0  0.7671642303466797  0.13149864971637726  0.5330654978752136  1.0000
  O   O2        1.0  0.4243363738059998  0.03834397345781326  0.8485983610153198  1.0000
  Ba  Ba2       1.0  0.3684006333351135  0.48253780603408813  0.7356849312782288  1.0000
  O   O3        1.0  0.10959176719188692  0.22427248954772952  0.21753168106079107  1.0000
  O   O4        1.0  0.7670770883560181  0.6315344572067262  0.5330713987350465  1.0000
