data_image201
_chemical_formula_structural       OBaO2Ti
_chemical_formula_sum              "O3 Ba1 Ti1"
_cell_length_a       4.004931561299449
_cell_length_b       4.106433092495817
_cell_length_c       4.12111759185791
_cell_angle_alpha    89.4981270061694
_cell_angle_beta     89.82046416193617
_cell_angle_gamma    89.69089546167935

_space_group_name_H-M_alt    "P 1"
_space_group_IT_number       1

loop_
  _space_group_symop_operation_xyz
  'x, y, z'

loop_
  _atom_site_type_symbol
  _atom_site_label
  _atom_site_symmetry_multiplicity
  _atom_site_fract_x
  _atom_site_fract_y
  _atom_site_fract_z
  _atom_site_occupancy
  O   O1        1.0  0.004105448722839356  0.9913524985313414  0.31573155522346497  1.0000
  Ba  Ba1       1.0  0.5068170428276062  0.01799950562417507  0.8300520777702332  1.0000
  O   O2        1.0  0.0060762548819184295  0.5047863125801086  0.798064112663269  1.0000
  O   O3        1.0  0.5058349370956421  0.5003272891044617  0.3080090284347534  1.0000
  Ti  Ti1       1.0  0.007896878756582737  0.5351707935333252  0.34889817237854004  1.0000
