data_image342
_chemical_formula_structural       OTiBaOBaTi2O5
_chemical_formula_sum              "O7 Ti3 Ba2"
_cell_length_a       3.9827888427251055
_cell_length_b       4.153800324015654
_cell_length_c       10.306486129760742
_cell_angle_alpha    91.45964813508303
_cell_angle_beta     101.20502315311542
_cell_angle_gamma    90.20679326874033

_space_group_name_H-M_alt    "P 1"
_space_group_IT_number       1

loop_
  _space_group_symop_operation_xyz
  'x, y, z'

loop_
  _atom_site_type_symbol
  _atom_site_label
  _atom_site_symmetry_multiplicity
  _atom_site_fract_x
  _atom_site_fract_y
  _atom_site_fract_z
  _atom_site_occupancy
  O   O1        1.0  0.07933124899864197  0.137453094124794  0.06671259552240372  1.0000
  Ti  Ti1       1.0  0.47060054540634155  0.6558607220649719  0.8491483330726624  1.0000
  Ba  Ba1       1.0  0.6712492108345032  0.11074856668710709  0.25203630328178406  1.0000
  O   O2        1.0  0.37778258323669434  0.6271230578422546  0.6601322889328003  1.0000
  Ba  Ba2       1.0  0.867154061794281  0.14241306483745575  0.6437216401100159  1.0000
  Ti  Ti2       1.0  0.07580334693193436  0.5563778281211853  0.05894036963582039  1.0000
  Ti  Ti3       1.0  0.26062148809432983  0.6562550663948059  0.44787949323654175  1.0000
  O   O3        1.0  0.2778831422328949  0.1019926592707634  0.45859214663505554  1.0000
  O   O4        1.0  0.7812459468841553  0.6165836453437805  0.4582742154598236  1.0000
  O   O5        1.0  0.567955493927002  0.6243175268173218  0.044590745121240616  1.0000
  O   O6        1.0  0.17753735184669495  0.6170082092285156  0.25773885846138  1.0000
  O   O7        1.0  0.974337100982666  0.6337918043136597  0.8582899570465088  1.0000
