data_image567
_chemical_formula_structural       BaOTiBaO2BaOTiO3
_chemical_formula_sum              "Ba3 O7 Ti2"
_cell_length_a       4.074681120478586
_cell_length_b       4.070930379030909
_cell_length_c       11.11559772491455
_cell_angle_alpha    100.47126951457942
_cell_angle_beta     100.53214776564005
_cell_angle_gamma    90.20055053355378

_space_group_name_H-M_alt    "P 1"
_space_group_IT_number       1

loop_
  _space_group_symop_operation_xyz
  'x, y, z'

loop_
  _atom_site_type_symbol
  _atom_site_label
  _atom_site_symmetry_multiplicity
  _atom_site_fract_x
  _atom_site_fract_y
  _atom_site_fract_z
  _atom_site_occupancy
  Ba  Ba1       1.0  0.1500711590051651  0.7670264840126038  0.30340006947517395  1.0000
  O   O1        1.0  0.5522797703742981  0.6979600787162781  0.12626822292804718  1.0000
  Ti  Ti1       1.0  0.5768237709999084  0.1625128835439682  0.1278080940246582  1.0000
  Ba  Ba2       1.0  0.783069372177124  0.4008980691432953  0.5715240836143494  1.0000
  O   O2        1.0  0.04142656922340393  0.18814495205879211  0.1263008564710617  1.0000
  O   O3        1.0  0.45427194237709045  0.09630949795246124  0.9368650913238525  1.0000
  Ba  Ba3       1.0  0.9682434797286987  0.5820149183273315  0.9370591044425964  1.0000
  O   O4        1.0  0.2692452073097229  0.9103459715843201  0.5657627582550049  1.0000
  Ti  Ti2       1.0  0.38528844714164734  0.9756340384483337  0.7472578883171082  1.0000
  O   O5        1.0  0.3621041476726532  0.5084508657455444  0.7474806904792786  1.0000
  O   O6        1.0  0.6412418484687805  0.28006765246391296  0.3083961308002472  1.0000
  O   O7        1.0  0.8520449995994568  0.9985742568969727  0.7475863695144653  1.0000
