data_image560
_chemical_formula_structural       Ba2OTiOBaTiO
_chemical_formula_sum              "Ba3 O3 Ti2"
_cell_length_a       4.050406473182214
_cell_length_b       8.308036654114293
_cell_length_c       6.538249969482422
_cell_angle_alpha    87.42420174834955
_cell_angle_beta     72.14906987508087
_cell_angle_gamma    76.00682278118026

_space_group_name_H-M_alt    "P 1"
_space_group_IT_number       1

loop_
  _space_group_symop_operation_xyz
  'x, y, z'

loop_
  _atom_site_type_symbol
  _atom_site_label
  _atom_site_symmetry_multiplicity
  _atom_site_fract_x
  _atom_site_fract_y
  _atom_site_fract_z
  _atom_site_occupancy
  Ba  Ba1       1.0  0.9363401532173157  0.3526709973812103  0.13656292855739596  1.0000
  Ba  Ba2       1.0  0.12217004597187042  0.9083878397941589  0.20395079255104062  1.0000
  O   O1        1.0  0.21719874441623685  0.09679949283599854  0.8268455862998961  1.0000
  Ti  Ti1       1.0  0.3415888249874115  0.16455751657485965  0.5089659094810486  1.0000
  O   O2        1.0  0.8413174748420715  0.16462945938110352  0.512795627117157  1.0000
  Ba  Ba3       1.0  0.5298813581466675  0.629898726940155  0.6698805689811705  1.0000
  Ti  Ti2       1.0  0.7166064977645874  0.0969121903181076  0.8313446640968324  1.0000
  O   O3        1.0  0.5288026928901672  0.13126564025878906  0.16991616785526273  1.0000
