data_image517
_chemical_formula_structural       TiBaO2TiOBaO2TiO5Ba
_chemical_formula_sum              "Ti3 Ba3 O10"
_cell_length_a       3.8903518068821823
_cell_length_b       3.8842601185692276
_cell_length_c       15.118163108825684
_cell_angle_alpha    90.0174126569519
_cell_angle_beta     90.00763865602508
_cell_angle_gamma    90.02594356229748

_space_group_name_H-M_alt    "P 1"
_space_group_IT_number       1

loop_
  _space_group_symop_operation_xyz
  'x, y, z'

loop_
  _atom_site_type_symbol
  _atom_site_label
  _atom_site_symmetry_multiplicity
  _atom_site_fract_x
  _atom_site_fract_y
  _atom_site_fract_z
  _atom_site_occupancy
  Ti  Ti1       1.0  0.5355783104896545  0.2033102810382843  0.619038999080658  1.0000
  Ba  Ba1       1.0  0.035673901438713074  0.7038454413414001  0.7746179699897766  1.0000
  O   O1        1.0  0.5353304147720337  0.7029134035110474  0.9233137965202332  1.0000
  O   O2        1.0  0.03580275923013687  0.20329968631267548  0.6418731212615967  1.0000
  Ti  Ti2       1.0  0.5354341864585876  0.20298177003860474  0.2215145081281662  1.0000
  O   O3        1.0  0.035343021154403687  0.20353977382183078  0.9236918687820435  1.0000
  Ba  Ba2       1.0  0.03491886705160141  0.7039546966552735  0.06815205514431  1.0000
  O   O4        1.0  0.5363365411758423  0.20372785627841952  0.504571795463562  1.0000
  O   O5        1.0  0.5353714823722839  0.20313677191734314  0.7915754914283752  1.0000
  Ti  Ti3       1.0  0.5358355045318604  0.20408253371715548  0.9208265542984009  1.0000
  O   O6        1.0  0.5346012711524963  0.20372179150581363  0.05817659944295883  1.0000
  O   O7        1.0  0.5350595712661743  0.7037799954414368  0.20139318704605103  1.0000
  O   O8        1.0  0.035286907106637955  0.20401205122470856  0.20275753736495972  1.0000
  O   O9        1.0  0.5361112952232361  0.7032703161239624  0.6424395442008972  1.0000
  O   O10       1.0  0.5356635451316833  0.20303685963153842  0.3366480767726898  1.0000
  Ba  Ba3       1.0  0.03645167872309685  0.7042585611343385  0.4206945300102234  1.0000
