data_image426
_chemical_formula_structural       Ba4TiOTiO6
_chemical_formula_sum              "Ba4 Ti2 O7"
_cell_length_a       6.179340230708782
_cell_length_b       6.261347801804265
_cell_length_c       7.410928249359131
_cell_angle_alpha    67.18024399686573
_cell_angle_beta     64.22339364065762
_cell_angle_gamma    70.34421935881491

_space_group_name_H-M_alt    "P 1"
_space_group_IT_number       1

loop_
  _space_group_symop_operation_xyz
  'x, y, z'

loop_
  _atom_site_type_symbol
  _atom_site_label
  _atom_site_symmetry_multiplicity
  _atom_site_fract_x
  _atom_site_fract_y
  _atom_site_fract_z
  _atom_site_occupancy
  Ba  Ba1       1.0  0.9209923148155214  0.15152259171009064  0.09108429402112961  1.0000
  Ba  Ba2       1.0  0.8985202908515931  0.8774039149284364  0.6873034834861755  1.0000
  Ba  Ba3       1.0  0.4638794958591462  0.4647715985774994  0.8292511105537415  1.0000
  Ba  Ba4       1.0  0.4884777665138245  0.7394785284996034  0.23197716474533076  1.0000
  Ti  Ti1       1.0  0.015399806201457979  0.4550582766532898  0.3513568341732025  1.0000
  O   O1        1.0  0.3981718719005585  0.05266622081398964  0.8514066338539124  1.0000
  Ti  Ti2       1.0  0.37053474783897405  0.16009655594825745  0.5687306523323059  1.0000
  O   O2        1.0  0.6923622488975525  0.30726194381713867  0.46029004454612726  1.0000
  O   O3        1.0  0.3708200156688691  0.33104872703552246  0.2603442966938019  1.0000
  O   O4        1.0  0.00640400592237711  0.7458128929138184  0.36186718940734863  1.0000
  O   O5        1.0  0.01408983673900366  0.284477561712265  0.6597421169281006  1.0000
  O   O6        1.0  0.3796015679836274  0.8686468601226807  0.5566083192825317  1.0000
  O   O7        1.0  0.9883963465690614  0.5634158253669739  0.06850409507751454  1.0000
