data_image208
_chemical_formula_structural       BaOBaO
_chemical_formula_sum              "Ba2 O2"
_cell_length_a       3.972562440965713
_cell_length_b       3.9749493585548947
_cell_length_c       5.590022087097168
_cell_angle_alpha    90.20430713611321
_cell_angle_beta     90.20002459349458
_cell_angle_gamma    89.65310400352985

_space_group_name_H-M_alt    "P 1"
_space_group_IT_number       1

loop_
  _space_group_symop_operation_xyz
  'x, y, z'

loop_
  _atom_site_type_symbol
  _atom_site_label
  _atom_site_symmetry_multiplicity
  _atom_site_fract_x
  _atom_site_fract_y
  _atom_site_fract_z
  _atom_site_occupancy
  Ba  Ba1       1.0  0.8027993440628052  0.932434856891632  0.39962726831436163  1.0000
  O   O1        1.0  0.7828122973442078  0.9123559594154357  0.9007624983787538  1.0000
  Ba  Ba2       1.0  0.30873438715934753  0.4385856091976166  0.8997809290885926  1.0000
  O   O2        1.0  0.32871508598327637  0.4587144255638122  0.3986387252807618  1.0000
