data_image220
_chemical_formula_structural       OBaOTi
_chemical_formula_sum              "O2 Ba1 Ti1"
_cell_length_a       3.3075869769386466
_cell_length_b       3.3066423535574994
_cell_length_c       6.322732925415039
_cell_angle_alpha    74.87730763381033
_cell_angle_beta     74.85832516222197
_cell_angle_gamma    60.10759255852993

_space_group_name_H-M_alt    "P 1"
_space_group_IT_number       1

loop_
  _space_group_symop_operation_xyz
  'x, y, z'

loop_
  _atom_site_type_symbol
  _atom_site_label
  _atom_site_symmetry_multiplicity
  _atom_site_fract_x
  _atom_site_fract_y
  _atom_site_fract_z
  _atom_site_occupancy
  O   O1        1.0  0.8389483094215393  0.05292819067835808  0.6320582032203675  1.0000
  Ba  Ba1       1.0  0.06128272786736488  0.27554184198379517  0.9647568464279176  1.0000
  O   O2        1.0  0.28352814912796026  0.4977557063102722  0.2977723181247711  1.0000
  Ti  Ti1       1.0  0.5611943006515503  0.7757201194763185  0.46495953202247625  1.0000
