data_image369
_chemical_formula_structural       Ba2OTiO3TiO2
_chemical_formula_sum              "Ba2 O6 Ti2"
_cell_length_a       5.506783218876915
_cell_length_b       5.502341770770411
_cell_length_c       4.844473838806152
_cell_angle_alpha    89.91383283794349
_cell_angle_beta     89.90630596859413
_cell_angle_gamma    89.94812721800048

_space_group_name_H-M_alt    "P 1"
_space_group_IT_number       1

loop_
  _space_group_symop_operation_xyz
  'x, y, z'

loop_
  _atom_site_type_symbol
  _atom_site_label
  _atom_site_symmetry_multiplicity
  _atom_site_fract_x
  _atom_site_fract_y
  _atom_site_fract_z
  _atom_site_occupancy
  Ba  Ba1       1.0  0.4978252649307251  0.2234928160905838  0.5244542956352234  1.0000
  Ba  Ba2       1.0  0.9978395700454712  0.723743736743927  0.5211164355278015  1.0000
  O   O1        1.0  0.7481496930122375  0.4741029441356659  0.11399754881858826  1.0000
  Ti  Ti1       1.0  0.9980789422988892  0.22426645457744596  0.02442019432783127  1.0000
  O   O2        1.0  0.9980885982513428  0.22390857338905334  0.6574020981788635  1.0000
  O   O3        1.0  0.24848106503486633  0.47403484582900995  0.11370604485273361  1.0000
  O   O4        1.0  0.7482931613922119  0.9742771983146667  0.11433161795139313  1.0000
  Ti  Ti2       1.0  0.49837619066238403  0.7239857316017151  0.02421901747584343  1.0000
  O   O5        1.0  0.4982050061225891  0.7237692475318909  0.6568954586982727  1.0000
  O   O6        1.0  0.24833232164382935  0.9741100668907164  0.11492155492305756  1.0000
