data_image514
_chemical_formula_structural       BaTiBaO6Ti2O
_chemical_formula_sum              "Ba2 Ti3 O7"
_cell_length_a       3.9394828764382455
_cell_length_b       4.043708961715903
_cell_length_c       10.56350326538086
_cell_angle_alpha    100.94572196224533
_cell_angle_beta     90.0176790342736
_cell_angle_gamma    90.01641545002835

_space_group_name_H-M_alt    "P 1"
_space_group_IT_number       1

loop_
  _space_group_symop_operation_xyz
  'x, y, z'

loop_
  _atom_site_type_symbol
  _atom_site_label
  _atom_site_symmetry_multiplicity
  _atom_site_fract_x
  _atom_site_fract_y
  _atom_site_fract_z
  _atom_site_occupancy
  Ba  Ba1       1.0  0.1139405220746994  0.5066666007041931  0.7492465376853943  1.0000
  Ti  Ti1       1.0  0.6134347319602966  0.310051143169403  0.3527058959007263  1.0000
  Ba  Ba2       1.0  0.11380533128976822  0.7038384675979614  0.14152252674102783  1.0000
  O   O1        1.0  0.6142413020133972  0.8144899606704712  0.3597589135169983  1.0000
  O   O2        1.0  0.6130154132843018  0.22215554118156433  0.17189788818359375  1.0000
  O   O3        1.0  0.11275961995124817  0.11875006556510924  0.9612411260604857  1.0000
  O   O4        1.0  0.6142240762710571  0.4062100052833557  0.5434491038322449  1.0000
  O   O5        1.0  0.11380379647016525  0.921039879322052  0.572697103023529  1.0000
  O   O6        1.0  0.613124668598175  0.6217904686927795  0.9588956236839293  1.0000
  Ti  Ti2       1.0  0.6132755279541016  0.09816945344209671  0.9420028328895568  1.0000
  Ti  Ti3       1.0  0.6144796013832092  0.9114041328430176  0.5526049137115479  1.0000
  O   O7        1.0  0.6141741871833801  0.016974074766039845  0.7629614472389221  1.0000
