data_image761
_chemical_formula_structural       BaTi2O5
_chemical_formula_sum              "Ba1 Ti2 O5"
_cell_length_a       3.9154653565002078
_cell_length_b       5.627658213652733
_cell_length_c       6.567091941833496
_cell_angle_alpha    91.97285506828426
_cell_angle_beta     90.08245654951277
_cell_angle_gamma    110.35928559988378

_space_group_name_H-M_alt    "P 1"
_space_group_IT_number       1

loop_
  _space_group_symop_operation_xyz
  'x, y, z'

loop_
  _atom_site_type_symbol
  _atom_site_label
  _atom_site_symmetry_multiplicity
  _atom_site_fract_x
  _atom_site_fract_y
  _atom_site_fract_z
  _atom_site_occupancy
  Ba  Ba1       1.0  0.0798838660120964  0.35498008131980896  0.572914719581604  1.0000
  Ti  Ti1       1.0  0.6736973524093628  0.5449519753456116  0.0765959620475769  1.0000
  Ti  Ti2       1.0  0.36677706241607666  0.9299896955490112  0.2640671730041504  1.0000
  O   O1        1.0  0.19883447885513306  0.5943295955657959  0.12506039440631866  1.0000
  O   O2        1.0  0.850678563117981  0.8981919884681702  0.18743909895420074  1.0000
  O   O3        1.0  0.3416079878807068  0.8804576992988586  0.5212370753288269  1.0000
  O   O4        1.0  0.5448588728904724  0.2858979105949402  0.2691548466682434  1.0000
  O   O5        1.0  0.6258488297462463  0.44927519559860235  0.8215752840042114  1.0000
