data_image38
_chemical_formula_structural       Ba2Ti2O2BaO2BaOTiO6
_chemical_formula_sum              "Ba4 Ti3 O11"
_cell_length_a       5.789432873022482
_cell_length_b       5.752561049732236
_cell_length_c       9.633316040039062
_cell_angle_alpha    106.00813427438841
_cell_angle_beta     107.46750730784319
_cell_angle_gamma    90.11567851703607

_space_group_name_H-M_alt    "P 1"
_space_group_IT_number       1

loop_
  _space_group_symop_operation_xyz
  'x, y, z'

loop_
  _atom_site_type_symbol
  _atom_site_label
  _atom_site_symmetry_multiplicity
  _atom_site_fract_x
  _atom_site_fract_y
  _atom_site_fract_z
  _atom_site_occupancy
  Ba  Ba1       1.0  0.848959445953369  0.5409353971481324  0.04930851981043811  1.0000
  Ba  Ba2       1.0  0.5971726179122925  0.26262590289115906  0.5453060865402222  1.0000
  Ti  Ti1       1.0  0.4753940105438232  0.6413444876670837  0.30181676149368286  1.0000
  Ti  Ti2       1.0  0.9687362909317015  0.1469790041446686  0.2867603003978729  1.0000
  O   O1        1.0  0.7121584415435791  0.8687918782234193  0.2855839133262634  1.0000
  O   O2        1.0  0.577625036239624  0.7326679825782776  0.5065679550170898  1.0000
  Ba  Ba3       1.0  0.09898030757904051  0.733424723148346  0.5472255349159241  1.0000
  O   O3        1.0  0.46510341763496393  0.5244610905647279  0.7778429985046387  1.0000
  O   O4        1.0  0.8631114959716796  0.030866852030158046  0.07474636286497113  1.0000
  Ba  Ba4       1.0  0.3571464717388153  0.01606435328722  0.06421674042940138  1.0000
  O   O5        1.0  0.22364178299903867  0.866998851299286  0.28541311621665955  1.0000
  Ti  Ti3       1.0  0.24066320061683652  0.4030686616897583  0.8318400979042053  1.0000
  O   O6        1.0  0.9620627164840697  0.5236181616783143  0.7791599035263062  1.0000
  O   O7        1.0  0.7151466012001038  0.3778376877307892  0.2869238555431366  1.0000
  O   O8        1.0  0.22235523164272306  0.3769685029983521  0.2873513102531433  1.0000
  O   O9        1.0  0.21789512038230893  0.07795201241970062  0.7912062406539917  1.0000
  O   O10       1.0  0.07193678617477417  0.21425145864486694  0.49626386165618896  1.0000
  O   O11       1.0  0.3481626808643341  0.5101671814918518  0.046194057911634445  1.0000
