data_image239
_chemical_formula_structural       Ba4TiOTiO5
_chemical_formula_sum              "Ba4 Ti2 O6"
_cell_length_a       5.861987196131662
_cell_length_b       7.216247423500351
_cell_length_c       6.005001544952393
_cell_angle_alpha    90.03433103570951
_cell_angle_beta     89.99040608884484
_cell_angle_gamma    66.02899656029443

_space_group_name_H-M_alt    "P 1"
_space_group_IT_number       1

loop_
  _space_group_symop_operation_xyz
  'x, y, z'

loop_
  _atom_site_type_symbol
  _atom_site_label
  _atom_site_symmetry_multiplicity
  _atom_site_fract_x
  _atom_site_fract_y
  _atom_site_fract_z
  _atom_site_occupancy
  Ba  Ba1       1.0  0.7328779697418213  0.009147285483777523  0.6347942352294922  1.0000
  Ba  Ba2       1.0  0.9410502910614014  0.5941526889801025  0.11778521537780762  1.0000
  Ba  Ba3       1.0  0.44057154655456554  0.5946186780929565  0.6345161199569702  1.0000
  Ba  Ba4       1.0  0.23352091014385223  0.00850687175989151  0.1180565133690834  1.0000
  Ti  Ti1       1.0  0.08648139983415602  0.302396297454834  0.5906581282615662  1.0000
  O   O1        1.0  0.8369386196136475  0.30197423696517944  0.3760146498680115  1.0000
  Ti  Ti2       1.0  0.5876427888870238  0.3008476197719574  0.16088718175888062  1.0000
  O   O2        1.0  0.44044679403305065  0.593923032283783  0.09563910961151123  1.0000
  O   O3        1.0  0.3371325135231018  0.3011323809623718  0.3761196732521057  1.0000
  O   O4        1.0  0.2328144758939743  0.009037933312356474  0.655906081199646  1.0000
  O   O5        1.0  0.7336082458496094  0.008500398136675358  0.09669949859380722  1.0000
  O   O6        1.0  0.9414410591125488  0.5949400067329407  0.6547231674194336  1.0000
