data_image593
_chemical_formula_structural       Ba4TiOTiO5
_chemical_formula_sum              "Ba4 Ti2 O6"
_cell_length_a       4.010566794010968
_cell_length_b       4.00617623268092
_cell_length_c       13.86904239654541
_cell_angle_alpha    90.01974175335677
_cell_angle_beta     90.01162748620047
_cell_angle_gamma    89.98546103193696

_space_group_name_H-M_alt    "P 1"
_space_group_IT_number       1

loop_
  _space_group_symop_operation_xyz
  'x, y, z'

loop_
  _atom_site_type_symbol
  _atom_site_label
  _atom_site_symmetry_multiplicity
  _atom_site_fract_x
  _atom_site_fract_y
  _atom_site_fract_z
  _atom_site_occupancy
  Ba  Ba1       1.0  0.025107547640800476  0.5695634484291077  0.3902101218700409  1.0000
  Ba  Ba2       1.0  0.5254815220832825  0.06998222321271896  0.5932813286781311  1.0000
  Ba  Ba3       1.0  0.5256807804107666  0.07039571553468704  0.88327956199646  1.0000
  Ba  Ba4       1.0  0.5258585810661316  0.07063813507556915  0.1723863035440445  1.0000
  Ti  Ti1       1.0  0.025525042787194252  0.5703558921813965  0.7260246872901917  1.0000
  O   O1        1.0  0.5253394246101379  0.07004530727863312  0.38670867681503296  1.0000
  Ti  Ti2       1.0  0.025924233719706535  0.5700905323028564  0.032324619591236115  1.0000
  O   O2        1.0  0.02598508819937706  0.07021326571702957  0.03423132747411728  1.0000
  O   O3        1.0  0.02535192482173443  0.07031822949647903  0.7376372218132019  1.0000
  O   O4        1.0  0.5259124636650085  0.5701404809951782  0.7367229461669922  1.0000
  O   O5        1.0  0.5261382460594177  0.5704448819160461  0.03415840491652489  1.0000
  O   O6        1.0  0.025457121431827545  0.570153534412384  0.5830680727958679  1.0000
