data_image370
_chemical_formula_structural       O2TiBa2O
_chemical_formula_sum              "O3 Ti1 Ba2"
_cell_length_a       3.949430294470668
_cell_length_b       3.9503040313729607
_cell_length_c       7.604671001434326
_cell_angle_alpha    89.99996152334275
_cell_angle_beta     90.01056880712055
_cell_angle_gamma    89.99650544762927

_space_group_name_H-M_alt    "P 1"
_space_group_IT_number       1

loop_
  _space_group_symop_operation_xyz
  'x, y, z'

loop_
  _atom_site_type_symbol
  _atom_site_label
  _atom_site_symmetry_multiplicity
  _atom_site_fract_x
  _atom_site_fract_y
  _atom_site_fract_z
  _atom_site_occupancy
  O   O1        1.0  0.8648898005485535  0.27573090791702276  0.3321344554424286  1.0000
  O   O2        1.0  0.8651571273803711  0.7759357094764711  0.8338010907173157  1.0000
  Ti  Ti1       1.0  0.8648215532302856  0.7758623361587526  0.331821471452713  1.0000
  Ba  Ba1       1.0  0.3650018870830536  0.2757848203182221  0.5990345478057861  1.0000
  Ba  Ba2       1.0  0.36511218547821045  0.27573359012603765  0.06399546563625336  1.0000
  O   O3        1.0  0.36517542600631714  0.7757602930068971  0.3325650990009308  1.0000
