data_image639
_chemical_formula_structural       TiBa2O4TiBaOTiO3
_chemical_formula_sum              "Ti3 Ba3 O8"
_cell_length_a       4.015887878077335
_cell_length_b       4.013583665117297
_cell_length_c       12.394342422485352
_cell_angle_alpha    90.00285752354306
_cell_angle_beta     90.01517235689131
_cell_angle_gamma    90.00281654240825

_space_group_name_H-M_alt    "P 1"
_space_group_IT_number       1

loop_
  _space_group_symop_operation_xyz
  'x, y, z'

loop_
  _atom_site_type_symbol
  _atom_site_label
  _atom_site_symmetry_multiplicity
  _atom_site_fract_x
  _atom_site_fract_y
  _atom_site_fract_z
  _atom_site_occupancy
  Ti  Ti1       1.0  0.26985424757003784  0.19058269262313846  0.5839723348617554  1.0000
  Ba  Ba1       1.0  0.7696555256843567  0.6908787488937378  0.42183768749237066  1.0000
  Ba  Ba2       1.0  0.770431399345398  0.6895779371261598  0.09538582712411882  1.0000
  O   O1        1.0  0.27006375789642334  0.19016067683696747  0.08995269238948822  1.0000
  O   O2        1.0  0.7697185277938843  0.19064280390739444  0.5996582508087158  1.0000
  O   O3        1.0  0.26957884430885315  0.19090235233306885  0.42867484688758856  1.0000
  O   O4        1.0  0.2697050869464874  0.690712869167328  0.5997562408447266  1.0000
  Ti  Ti2       1.0  0.26985979080200195  0.19006851315498352  0.9338146448135377  1.0000
  Ba  Ba3       1.0  0.7699389457702637  0.6904507279396058  0.7590009570121766  1.0000
  O   O5        1.0  0.769756555557251  0.1902825087308884  0.2589246332645416  1.0000
  Ti  Ti3       1.0  0.26979026198387146  0.19073835015296936  0.25861477851867676  1.0000
  O   O6        1.0  0.7699681520462036  0.18989813327789307  0.9183514118194581  1.0000
  O   O7        1.0  0.26974010467529297  0.690500020980835  0.25920552015304565  1.0000
  O   O8        1.0  0.2701234817504883  0.6903645992279054  0.9184384346008302  1.0000
