data_image696
_chemical_formula_structural       Ba2OTi2O4
_chemical_formula_sum              "Ba2 O5 Ti2"
_cell_length_a       4.089997652894634
_cell_length_b       5.986363701964734
_cell_length_c       6.468238830566406
_cell_angle_alpha    105.379811119999
_cell_angle_beta     89.90513116831487
_cell_angle_gamma    109.75680825419116

_space_group_name_H-M_alt    "P 1"
_space_group_IT_number       1

loop_
  _space_group_symop_operation_xyz
  'x, y, z'

loop_
  _atom_site_type_symbol
  _atom_site_label
  _atom_site_symmetry_multiplicity
  _atom_site_fract_x
  _atom_site_fract_y
  _atom_site_fract_z
  _atom_site_occupancy
  Ba  Ba1       1.0  0.6929565072059631  0.8572890758514404  0.30102166533470154  1.0000
  Ba  Ba2       1.0  0.5010365843772888  0.4741168022155761  0.6599178910255432  1.0000
  O   O1        1.0  0.4383764863014221  0.34524789452552795  0.03967885300517082  1.0000
  Ti  Ti1       1.0  0.25586962699890137  0.9832689166069031  0.8840348720550537  1.0000
  Ti  Ti2       1.0  0.9378014206886292  0.34771227836608887  0.07635949552059172  1.0000
  O   O2        1.0  0.24653440713882446  0.9654672145843506  0.5926029682159424  1.0000
  O   O3        1.0  0.9471933245658875  0.36605438590049744  0.3679829239845276  1.0000
  O   O4        1.0  0.09714557230472565  0.6658351421356201  0.980757236480713  1.0000
  O   O5        1.0  0.7556244730949402  0.9856460094451904  0.9204307794570923  1.0000
