data_image399
_chemical_formula_structural       BaTi2OBaO3
_chemical_formula_sum              "Ba2 Ti2 O4"
_cell_length_a       3.8208558241808914
_cell_length_b       4.016149426606119
_cell_length_c       8.38412857055664
_cell_angle_alpha    89.77873852204077
_cell_angle_beta     95.48143428508077
_cell_angle_gamma    90.0027277509563

_space_group_name_H-M_alt    "P 1"
_space_group_IT_number       1

loop_
  _space_group_symop_operation_xyz
  'x, y, z'

loop_
  _atom_site_type_symbol
  _atom_site_label
  _atom_site_symmetry_multiplicity
  _atom_site_fract_x
  _atom_site_fract_y
  _atom_site_fract_z
  _atom_site_occupancy
  Ba  Ba1       1.0  0.1838582307100296  0.4510760605335235  0.6611498594284058  1.0000
  Ti  Ti1       1.0  0.0936020091176033  0.45119002461433405  0.07183662801980972  1.0000
  Ti  Ti2       1.0  0.6999766230583191  0.9514244794845581  0.9300049543380737  1.0000
  O   O1        1.0  0.6807402968406677  0.9504747390747069  0.6879920959472656  1.0000
  Ba  Ba2       1.0  0.6108952164649963  0.9513431191444396  0.340700626373291  1.0000
  O   O2        1.0  0.11413940042257308  0.4519284069538116  0.313520222902298  1.0000
  O   O3        1.0  0.5812644362449646  0.4507143795490265  0.9535730481147766  1.0000
  O   O4        1.0  0.21170575916767118  0.9515878558158875  0.04849494248628616  1.0000
