data_image656
_chemical_formula_structural       BaO3BaTiO
_chemical_formula_sum              "Ba2 O4 Ti1"
_cell_length_a       4.038210400851609
_cell_length_b       4.039459646229894
_cell_length_c       7.325658798217773
_cell_angle_alpha    106.03569337849291
_cell_angle_beta     106.05100797177936
_cell_angle_gamma    90.03378475535261

_space_group_name_H-M_alt    "P 1"
_space_group_IT_number       1

loop_
  _space_group_symop_operation_xyz
  'x, y, z'

loop_
  _atom_site_type_symbol
  _atom_site_label
  _atom_site_symmetry_multiplicity
  _atom_site_fract_x
  _atom_site_fract_y
  _atom_site_fract_z
  _atom_site_occupancy
  Ba  Ba1       1.0  0.18252633512020114  0.08516475558280945  0.714622974395752  1.0000
  O   O1        1.0  0.6869311332702637  0.5894899368286134  0.7229480743408203  1.0000
  O   O2        1.0  0.5391474366188049  0.9417367577552797  0.4278582036495208  1.0000
  O   O3        1.0  0.3908041417598725  0.29351255297660833  0.1324993371963501  1.0000
  Ba  Ba2       1.0  0.895063877105713  0.7978696227073669  0.1412269622087479  1.0000
  Ti  Ti1       1.0  0.5385907292366028  0.4414385557174683  0.4278425574302673  1.0000
  O   O4        1.0  0.03897663578391075  0.44152346253395086  0.42789933085441584  1.0000
