data_image347
_chemical_formula_structural       TiOBaOTiO2BaO2
_chemical_formula_sum              "Ti2 O6 Ba2"
_cell_length_a       4.041423803288617
_cell_length_b       5.47558373750905
_cell_length_c       8.40959644317627
_cell_angle_alpha    61.440480594972
_cell_angle_beta     76.13026561456792
_cell_angle_gamma    68.34150006376923

_space_group_name_H-M_alt    "P 1"
_space_group_IT_number       1

loop_
  _space_group_symop_operation_xyz
  'x, y, z'

loop_
  _atom_site_type_symbol
  _atom_site_label
  _atom_site_symmetry_multiplicity
  _atom_site_fract_x
  _atom_site_fract_y
  _atom_site_fract_z
  _atom_site_occupancy
  Ti  Ti1       1.0  0.16534647345542908  0.5780674815177917  0.29286473989486694  1.0000
  O   O1        1.0  0.23337183892726895  0.2009984850883484  0.5318478941917419  1.0000
  Ba  Ba1       1.0  0.9050210118293763  0.36295315623283386  0.030973007902502986  1.0000
  O   O2        1.0  0.3630208671092987  0.2559943199157715  0.22222337126731873  1.0000
  Ti  Ti2       1.0  0.4314970672130584  0.8780531883239746  0.46203312277793884  1.0000
  O   O3        1.0  0.44044890999794  0.6161662936210633  0.7053471803665161  1.0000
  O   O4        1.0  0.15572735667228693  0.8407390117645265  0.048515647649765015  1.0000
  Ba  Ba2       1.0  0.6924161314964294  0.09199946373701096  0.7232570648193359  1.0000
  O   O5        1.0  0.6359957456588745  0.5944002866744996  0.3361264765262603  1.0000
  O   O6        1.0  0.9606516361236571  0.8616589307785034  0.41827747225761414  1.0000
