data_image404
_chemical_formula_structural       Ba5TiBa2O7
_chemical_formula_sum              "Ba7 Ti1 O7"
_cell_length_a       6.845646811772727
_cell_length_b       6.756364302181929
_cell_length_c       7.878040313720703
_cell_angle_alpha    73.95777248280972
_cell_angle_beta     91.34065253093692
_cell_angle_gamma    79.85557943962034

_space_group_name_H-M_alt    "P 1"
_space_group_IT_number       1

loop_
  _space_group_symop_operation_xyz
  'x, y, z'

loop_
  _atom_site_type_symbol
  _atom_site_label
  _atom_site_symmetry_multiplicity
  _atom_site_fract_x
  _atom_site_fract_y
  _atom_site_fract_z
  _atom_site_occupancy
  Ba  Ba1       1.0  0.9921503663063048  0.5284355878829956  0.1348525583744049  1.0000
  Ba  Ba2       1.0  0.4821735322475432  0.47645202279090887  0.3879712224006652  1.0000
  Ba  Ba3       1.0  0.9574865102767943  0.4877956509590149  0.6311742067337035  1.0000
  Ba  Ba4       1.0  0.7331820726394652  0.0007659196853637695  0.276414692401886  1.0000
  Ba  Ba5       1.0  0.2183713614940643  0.018747111782431602  0.015913261100649834  1.0000
  Ti  Ti1       1.0  0.6583412885665892  0.9943614602088929  0.8027048707008361  1.0000
  Ba  Ba6       1.0  0.5090959668159485  0.48617172241210943  0.8870866894721984  1.0000
  Ba  Ba7       1.0  0.23428691923618314  0.0020737648010253906  0.507002592086792  1.0000
  O   O1        1.0  0.8145618438720702  0.17062558233737946  0.894741654396057  1.0000
  O   O2        1.0  0.6142897009849547  0.8041353821754456  0.022938974201679226  1.0000
  O   O3        1.0  0.8765990138053893  0.2875964045524597  0.39948236942291254  1.0000
  O   O4        1.0  0.41744199395179743  0.2031025290489197  0.7093791961669921  1.0000
  O   O5        1.0  0.36019074916839594  0.24458189308643344  0.21219503879547116  1.0000
  O   O6        1.0  0.10806246101856232  0.7447532415390015  0.33031886816024775  1.0000
  O   O7        1.0  0.6522606015205382  0.8196506500244141  0.6348847150802611  1.0000
