data_image768
_chemical_formula_structural       BaOTiBaO3TiO2
_chemical_formula_sum              "Ba2 O6 Ti2"
_cell_length_a       5.564339677181554
_cell_length_b       5.56404118523167
_cell_length_c       6.04557466506958
_cell_angle_alpha    117.28441538471047
_cell_angle_beta     117.2939073550552
_cell_angle_gamma    89.99061814066013

_space_group_name_H-M_alt    "P 1"
_space_group_IT_number       1

loop_
  _space_group_symop_operation_xyz
  'x, y, z'

loop_
  _atom_site_type_symbol
  _atom_site_label
  _atom_site_symmetry_multiplicity
  _atom_site_fract_x
  _atom_site_fract_y
  _atom_site_fract_z
  _atom_site_occupancy
  Ba  Ba1       1.0  0.40840983390808105  0.10689038783311844  0.5562296509742737  1.0000
  O   O1        1.0  0.9614826440811157  0.15963095426559448  0.6628868579864502  1.0000
  Ti  Ti1       1.0  0.6537215113639832  0.8526973128318786  0.04726637899875641  1.0000
  Ba  Ba2       1.0  0.9083307385444641  0.6065009236335754  0.5557193756103516  1.0000
  O   O2        1.0  0.9453904628753662  0.6437070965766907  0.12966609001159668  1.0000
  O   O3        1.0  0.4453383684158325  0.1429303139448166  0.12867926061153412  1.0000
  O   O4        1.0  0.4613474905490875  0.6590372323989868  0.6618706583976746  1.0000
  Ti  Ti2       1.0  0.1541547179222107  0.35272759199142456  0.04774920269846916  1.0000
  O   O5        1.0  0.9444411993026733  0.14295536279678345  0.12936250865459437  1.0000
  O   O6        1.0  0.4450640380382538  0.6424539089202881  0.12796489894390106  1.0000
