data_image169
_chemical_formula_structural       O2BaOTiBaO
_chemical_formula_sum              "O4 Ba2 Ti1"
_cell_length_a       4.029881510019994
_cell_length_b       4.0323248044189475
_cell_length_c       7.34895658493042
_cell_angle_alpha    105.92777002943212
_cell_angle_beta     105.99092269290628
_cell_angle_gamma    90.01323974039121

_space_group_name_H-M_alt    "P 1"
_space_group_IT_number       1

loop_
  _space_group_symop_operation_xyz
  'x, y, z'

loop_
  _atom_site_type_symbol
  _atom_site_label
  _atom_site_symmetry_multiplicity
  _atom_site_fract_x
  _atom_site_fract_y
  _atom_site_fract_z
  _atom_site_occupancy
  O   O1        1.0  0.5077983736991882  0.07837425172328949  0.14671432971954343  1.0000
  O   O2        1.0  0.3598671555519104  0.43064159154891973  0.8516415953636168  1.0000
  Ba  Ba1       1.0  0.003835320472717285  0.5737835168838501  0.13830435276031494  1.0000
  O   O3        1.0  0.21218997240066528  0.7824580669403076  0.5564379692077637  1.0000
  Ti  Ti1       1.0  0.3600243628025055  0.9302659630775452  0.851526379585266  1.0000
  Ba  Ba2       1.0  0.7162401676177979  0.2867217957973481  0.5649948120117186  1.0000
  O   O4        1.0  0.8599271178245544  0.9308249950408937  0.8516701459884642  1.0000
