data_image572
_chemical_formula_structural       BaTi2O4Ba
_chemical_formula_sum              "Ba2 Ti2 O4"
_cell_length_a       3.9940986770685525
_cell_length_b       5.846871098706957
_cell_length_c       5.853824615478516
_cell_angle_alpha    93.02525718197452
_cell_angle_beta     90.04452167910053
_cell_angle_gamma    90.0223235636732

_space_group_name_H-M_alt    "P 1"
_space_group_IT_number       1

loop_
  _space_group_symop_operation_xyz
  'x, y, z'

loop_
  _atom_site_type_symbol
  _atom_site_label
  _atom_site_symmetry_multiplicity
  _atom_site_fract_x
  _atom_site_fract_y
  _atom_site_fract_z
  _atom_site_occupancy
  Ba  Ba1       1.0  0.6789634227752684  0.052213974297046654  0.44766882061958313  1.0000
  Ti  Ti1       1.0  0.17839135229587552  0.030532848089933395  0.9575204253196717  1.0000
  Ti  Ti2       1.0  0.17880330979824063  0.5650213360786438  0.4234278202056885  1.0000
  O   O1        1.0  0.6789743900299071  0.5444581508636475  0.4444406032562256  1.0000
  O   O2        1.0  0.17891776561737058  0.8088571429252625  0.6973336935043335  1.0000
  O   O3        1.0  0.17880327999591825  0.2917366623878479  0.17934302985668182  1.0000
  O   O4        1.0  0.178954541683197  0.8043397068977356  0.18562662601470947  1.0000
  Ba  Ba2       1.0  0.6789214015007018  0.5419886708259583  0.9359551668167114  1.0000
