data_image642
_chemical_formula_structural       BaOTiBaTiO3
_chemical_formula_sum              "Ba2 O4 Ti2"
_cell_length_a       3.8526832843173757
_cell_length_b       4.001248556139106
_cell_length_c       8.385680198669434
_cell_angle_alpha    89.65694258688838
_cell_angle_beta     95.77132079814561
_cell_angle_gamma    89.80746631010616

_space_group_name_H-M_alt    "P 1"
_space_group_IT_number       1

loop_
  _space_group_symop_operation_xyz
  'x, y, z'

loop_
  _atom_site_type_symbol
  _atom_site_label
  _atom_site_symmetry_multiplicity
  _atom_site_fract_x
  _atom_site_fract_y
  _atom_site_fract_z
  _atom_site_occupancy
  Ba  Ba1       1.0  0.05474865064024925  0.5534623861312866  0.7963064312934874  1.0000
  O   O1        1.0  0.6520318388938904  0.5542247891426086  0.5026384592056274  1.0000
  Ti  Ti1       1.0  0.13980239629745483  0.5517450571060181  0.3825960159301758  1.0000
  Ba  Ba2       1.0  0.6232922673225403  0.051183294504880905  0.11342793703079224  1.0000
  Ti  Ti2       1.0  0.535502016544342  0.05295967310667038  0.527762770652771  1.0000
  O   O2        1.0  0.023875566199421883  0.05105312541127205  0.4090045988559723  1.0000
  O   O3        1.0  0.5591707229614258  0.05428791791200638  0.7695028781890869  1.0000
  O   O4        1.0  0.11929211765527725  0.5516833066940308  0.14174245297908783  1.0000
