data_image681
_chemical_formula_structural       BaOBaTiO3
_chemical_formula_sum              "Ba2 O4 Ti1"
_cell_length_a       4.037004544538228
_cell_length_b       4.038282031928307
_cell_length_c       7.302722454071045
_cell_angle_alpha    106.22656328303418
_cell_angle_beta     106.18718898262163
_cell_angle_gamma    90.08451942604701

_space_group_name_H-M_alt    "P 1"
_space_group_IT_number       1

loop_
  _space_group_symop_operation_xyz
  'x, y, z'

loop_
  _atom_site_type_symbol
  _atom_site_label
  _atom_site_symmetry_multiplicity
  _atom_site_fract_x
  _atom_site_fract_y
  _atom_site_fract_z
  _atom_site_occupancy
  Ba  Ba1       1.0  0.13546688854694366  0.24350762367248532  0.3842303454875946  1.0000
  O   O1        1.0  0.7793055176734924  0.38743552565574646  0.6711006760597229  1.0000
  Ba  Ba2       1.0  0.4235081970691681  0.531343936920166  0.9577698707580566  1.0000
  Ti  Ti1       1.0  0.7796226739883423  0.8873226046562194  0.6710134744644165  1.0000
  O   O2        1.0  0.2794242799282074  0.8873763084411621  0.6709796190261841  1.0000
  O   O3        1.0  0.6312811970710754  0.7395192980766295  0.3758065402507782  1.0000
  O   O4        1.0  0.9277607202529907  0.035494327545166016  0.9665640592575073  1.0000
