data_image336
_chemical_formula_structural       BaTiBaO3TiO3
_chemical_formula_sum              "Ba2 Ti2 O6"
_cell_length_a       4.059862712105331
_cell_length_b       7.475116020225866
_cell_length_c       6.41292667388916
_cell_angle_alpha    102.29573590323605
_cell_angle_beta     108.44393024863426
_cell_angle_gamma    89.95473215426142

_space_group_name_H-M_alt    "P 1"
_space_group_IT_number       1

loop_
  _space_group_symop_operation_xyz
  'x, y, z'

loop_
  _atom_site_type_symbol
  _atom_site_label
  _atom_site_symmetry_multiplicity
  _atom_site_fract_x
  _atom_site_fract_y
  _atom_site_fract_z
  _atom_site_occupancy
  Ba  Ba1       1.0  0.12361413240432739  0.6254852414131165  0.3328464925289154  1.0000
  Ti  Ti1       1.0  0.8766220211982727  0.9688328504562379  0.8393964767456054  1.0000
  Ba  Ba2       1.0  0.6237331032752991  0.12528109550476074  0.3331913650035858  1.0000
  O   O1        1.0  0.38437870144844055  0.027937088161706924  0.85382741689682  1.0000
  O   O2        1.0  0.5065488219261169  0.4374808073043823  0.09938837587833405  1.0000
  O   O3        1.0  0.012369629926979535  0.9057911038398743  0.10971204191446303  1.0000
  Ti  Ti2       1.0  0.3713330924510956  0.2833738327026367  0.8269912004470825  1.0000
  O   O4        1.0  0.7406073808670044  0.813456118106842  0.5652561187744141  1.0000
  O   O5        1.0  0.8621748089790345  0.2231070548295975  0.8111405968666077  1.0000
  O   O6        1.0  0.23567380011081696  0.3455291986465454  0.5571772456169128  1.0000
