data_image590
_chemical_formula_structural       TiOBa2TiBa
_chemical_formula_sum              "Ti2 O1 Ba3"
_cell_length_a       4.381623822729767
_cell_length_b       4.386200699242056
_cell_length_c       14.014662742614746
_cell_angle_alpha    81.4833847227503
_cell_angle_beta     81.20727530438404
_cell_angle_gamma    60.1373657525764

_space_group_name_H-M_alt    "P 1"
_space_group_IT_number       1

loop_
  _space_group_symop_operation_xyz
  'x, y, z'

loop_
  _atom_site_type_symbol
  _atom_site_label
  _atom_site_symmetry_multiplicity
  _atom_site_fract_x
  _atom_site_fract_y
  _atom_site_fract_z
  _atom_site_occupancy
  Ti  Ti1       1.0  0.8331811428070068  0.9347100853919984  0.3055962026119232  1.0000
  O   O1        1.0  0.8778079152107238  0.9771721363067627  0.16898676753044128  1.0000
  Ba  Ba1       1.0  0.6624078154563904  0.7641006112098694  0.8177385926246643  1.0000
  Ba  Ba2       1.0  0.22701384127140042  0.3256867825984955  0.12662476301193237  1.0000
  Ti  Ti2       1.0  0.4804944396018982  0.5829722881317139  0.36296436190605164  1.0000
  Ba  Ba3       1.0  0.09052252024412154  0.19741025567054749  0.5301908850669861  1.0000
