data_image363
_chemical_formula_structural       BaOTiBaO2TiO2TiO2
_chemical_formula_sum              "Ba2 O7 Ti3"
_cell_length_a       3.9643284784795876
_cell_length_b       5.95941241405338
_cell_length_c       8.439247131347656
_cell_angle_alpha    110.62912739303304
_cell_angle_beta     103.51814249881238
_cell_angle_gamma    90.03975422960035

_space_group_name_H-M_alt    "P 1"
_space_group_IT_number       1

loop_
  _space_group_symop_operation_xyz
  'x, y, z'

loop_
  _atom_site_type_symbol
  _atom_site_label
  _atom_site_symmetry_multiplicity
  _atom_site_fract_x
  _atom_site_fract_y
  _atom_site_fract_z
  _atom_site_occupancy
  Ba  Ba1       1.0  0.7578575611114502  0.653985321521759  0.7448097467422485  1.0000
  O   O1        1.0  0.38130226731300354  0.5183961391448975  0.9906244874000549  1.0000
  Ti  Ti1       1.0  0.28339147567749023  0.17869487404823303  0.7955213785171509  1.0000
  Ba  Ba2       1.0  0.962382435798645  0.3561764061450958  0.1554398685693741  1.0000
  O   O2        1.0  0.3803960382938385  0.02863803505897522  0.9895971417427063  1.0000
  O   O3        1.0  0.18966656923294067  0.8517492413520813  0.6066184639930725  1.0000
  Ti  Ti2       1.0  0.45322996377944946  0.8459417819976807  0.13481789827346807  1.0000
  O   O4        1.0  0.19008585810661316  0.3189542591571808  0.6076988577842712  1.0000
  O   O5        1.0  0.9715400338172913  0.8633413910865784  0.17125229537487036  1.0000
  Ti  Ti3       1.0  0.1068100780248642  0.0018195571610704064  0.43942517042160034  1.0000
  O   O6        1.0  0.793333888053894  0.18806564807891848  0.8158240914344788  1.0000
  O   O7        1.0  0.5837761163711548  0.9858089089393616  0.39401406049728394  1.0000
