data_image586
_chemical_formula_structural       OBa2TiO5
_chemical_formula_sum              "O6 Ba2 Ti1"
_cell_length_a       5.845016494910705
_cell_length_b       5.926120550829507
_cell_length_c       6.23221492767334
_cell_angle_alpha    95.63798861000869
_cell_angle_beta     115.18922513018758
_cell_angle_gamma    115.17014115164054

_space_group_name_H-M_alt    "P 1"
_space_group_IT_number       1

loop_
  _space_group_symop_operation_xyz
  'x, y, z'

loop_
  _atom_site_type_symbol
  _atom_site_label
  _atom_site_symmetry_multiplicity
  _atom_site_fract_x
  _atom_site_fract_y
  _atom_site_fract_z
  _atom_site_occupancy
  O   O1        1.0  0.6233587861061096  0.7758696675300598  0.692835807800293  1.0000
  Ba  Ba1       1.0  0.10038346052169798  0.22763988375663755  0.041317187249660485  1.0000
  Ba  Ba2       1.0  0.10562828183174133  0.7299115061759949  0.5477644801139832  1.0000
  Ti  Ti1       1.0  0.6309481859207153  0.5062905550003052  0.7985302805900574  1.0000
  O   O2        1.0  0.38728928565979004  0.19842758774757385  0.49515852332115173  1.0000
  O   O3        1.0  0.6237332820892334  0.5689453482627869  0.09915994852781296  1.0000
  O   O4        1.0  0.006284846924245316  0.5965720415115355  0.8968644738197326  1.0000
  O   O5        1.0  0.6105371713638306  0.2983047664165497  0.04825058579444882  1.0000
  O   O6        1.0  0.1726517081260681  0.2385519593954086  0.5532688498497009  1.0000
