data_image314
_chemical_formula_structural       TiBaOBaTiO5
_chemical_formula_sum              "Ti2 Ba2 O6"
_cell_length_a       4.289834636506816
_cell_length_b       5.656604304761763
_cell_length_c       5.660464286804199
_cell_angle_alpha    89.9664731075782
_cell_angle_beta     89.89437362034906
_cell_angle_gamma    89.95204091770162

_space_group_name_H-M_alt    "P 1"
_space_group_IT_number       1

loop_
  _space_group_symop_operation_xyz
  'x, y, z'

loop_
  _atom_site_type_symbol
  _atom_site_label
  _atom_site_symmetry_multiplicity
  _atom_site_fract_x
  _atom_site_fract_y
  _atom_site_fract_z
  _atom_site_occupancy
  Ti  Ti1       1.0  0.7372514605522156  0.8004289865493774  0.41894766688346863  1.0000
  Ba  Ba1       1.0  0.21836616098880768  0.3004646301269531  0.4194316864013672  1.0000
  O   O1        1.0  0.15449826419353485  0.8005759716033936  0.4196525812149048  1.0000
  Ba  Ba2       1.0  0.21989919245243073  0.8005529046058656  0.9198601841926575  1.0000
  Ti  Ti2       1.0  0.7378877401351929  0.3002939522266388  0.9196966886520386  1.0000
  O   O2        1.0  0.6787230372428894  0.5511632561683655  0.16956926882266998  1.0000
  O   O3        1.0  0.6788632273674011  0.05053362250328065  0.1691301316022873  1.0000
  O   O4        1.0  0.6777110695838928  0.05041135102510452  0.6694161295890808  1.0000
  O   O5        1.0  0.6775737404823303  0.5512831211090088  0.6693692207336426  1.0000
  O   O6        1.0  0.1544703096151352  0.3007779121398926  0.919235348701477  1.0000
