data_image515
_chemical_formula_structural       Ba2Ti2O3BaO4
_chemical_formula_sum              "Ba3 Ti2 O7"
_cell_length_a       4.06479799389272
_cell_length_b       4.065091634000936
_cell_length_c       11.078863143920898
_cell_angle_alpha    100.56394932447252
_cell_angle_beta     100.54876530761489
_cell_angle_gamma    89.89099959044546

_space_group_name_H-M_alt    "P 1"
_space_group_IT_number       1

loop_
  _space_group_symop_operation_xyz
  'x, y, z'

loop_
  _atom_site_type_symbol
  _atom_site_label
  _atom_site_symmetry_multiplicity
  _atom_site_fract_x
  _atom_site_fract_y
  _atom_site_fract_z
  _atom_site_occupancy
  Ba  Ba1       1.0  0.22843930125236508  0.9603270888328552  0.8356766104698181  1.0000
  Ba  Ba2       1.0  0.04272934794425964  0.7761286497116089  0.46946781873703003  1.0000
  Ti  Ti1       1.0  0.645454168319702  0.3775230646133423  0.6452541351318359  1.0000
  Ti  Ti2       1.0  0.8364678025245665  0.5686157941818237  0.02584838308393953  1.0000
  O   O1        1.0  0.302060455083847  0.5444561839103699  0.024750519543886185  1.0000
  O   O2        1.0  0.811361014842987  0.035160262137651443  0.024563148617744435  1.0000
  O   O3        1.0  0.9016506075859069  0.6346591114997864  0.2073744684457779  1.0000
  Ba  Ba3       1.0  0.41129970550537104  0.1421475112438202  0.20266343653202057  1.0000
  O   O4        1.0  0.11418358981609343  0.3572995364665985  0.6468198299407959  1.0000
  O   O5        1.0  0.62420916557312  0.8465011119842529  0.6466566324234009  1.0000
  O   O6        1.0  0.5302348732948303  0.26285234093666077  0.46388381719589233  1.0000
  O   O7        1.0  0.7153952717781066  0.4487387537956238  0.8351972103118896  1.0000
