data_image657
_chemical_formula_structural       BaOBaO2Ti
_chemical_formula_sum              "Ba2 O3 Ti1"
_cell_length_a       3.969761533049426
_cell_length_b       4.050408923565724
_cell_length_c       7.395569324493408
_cell_angle_alpha    105.84892958721854
_cell_angle_beta     105.55996445953998
_cell_angle_gamma    90.01707094762102

_space_group_name_H-M_alt    "P 1"
_space_group_IT_number       1

loop_
  _space_group_symop_operation_xyz
  'x, y, z'

loop_
  _atom_site_type_symbol
  _atom_site_label
  _atom_site_symmetry_multiplicity
  _atom_site_fract_x
  _atom_site_fract_y
  _atom_site_fract_z
  _atom_site_occupancy
  Ba  Ba1       1.0  0.7868619561195374  0.9773101210594176  0.012724216096103193  1.0000
  O   O1        1.0  0.28748223185539246  0.47828683257102966  0.014165624976158144  1.0000
  Ba  Ba2       1.0  0.07870896905660629  0.27002748847007746  0.5966849327087403  1.0000
  O   O2        1.0  0.5784991979598999  0.7693339586257935  0.5953341126441957  1.0000
  O   O3        1.0  0.4327143132686615  0.12414060533046722  0.30494210124015814  1.0000
  Ti  Ti1       1.0  0.43253377079963684  0.6236469745635986  0.304473102092743  1.0000
