data_image321
_chemical_formula_structural       Ba2OTiOTiO4
_chemical_formula_sum              "Ba2 O6 Ti2"
_cell_length_a       4.233682127660196
_cell_length_b       5.654633792336201
_cell_length_c       5.651103496551514
_cell_angle_alpha    90.03769831973649
_cell_angle_beta     90.03788956333476
_cell_angle_gamma    89.98739397467082

_space_group_name_H-M_alt    "P 1"
_space_group_IT_number       1

loop_
  _space_group_symop_operation_xyz
  'x, y, z'

loop_
  _atom_site_type_symbol
  _atom_site_label
  _atom_site_symmetry_multiplicity
  _atom_site_fract_x
  _atom_site_fract_y
  _atom_site_fract_z
  _atom_site_occupancy
  Ba  Ba1       1.0  0.6385970711708069  0.9623887538909913  0.776233732700348  1.0000
  Ba  Ba2       1.0  0.6391110420227051  0.46135988831520086  0.27646198868751526  1.0000
  O   O1        1.0  0.6952366232872009  0.9618661999702454  0.275984525680542  1.0000
  Ti  Ti1       1.0  0.12077642977237701  0.961367964744568  0.2760317325592041  1.0000
  O   O2        1.0  0.17265693843364716  0.7122460007667542  0.02615514397621155  1.0000
  Ti  Ti2       1.0  0.12030133605003357  0.46222251653671265  0.7766929864883424  1.0000
  O   O3        1.0  0.17433203756809235  0.21110549569129944  0.525521457195282  1.0000
  O   O4        1.0  0.6956040263175964  0.46203735470771795  0.7756900191307069  1.0000
  O   O5        1.0  0.17291025817394257  0.21190927922725677  0.025908818468451503  1.0000
  O   O6        1.0  0.1734091341495514  0.7123754024505615  0.525609016418457  1.0000
