data_image403
_chemical_formula_structural       Ba2O2BaOTiOBa2O5TiOBa
_chemical_formula_sum              "Ba6 O10 Ti2"
_cell_length_a       7.6475661134912185
_cell_length_b       7.67639036066508
_cell_length_c       7.673029899597168
_cell_angle_alpha    62.679594500189886
_cell_angle_beta     62.79994248676039
_cell_angle_gamma    62.68614554192348

_space_group_name_H-M_alt    "P 1"
_space_group_IT_number       1

loop_
  _space_group_symop_operation_xyz
  'x, y, z'

loop_
  _atom_site_type_symbol
  _atom_site_label
  _atom_site_symmetry_multiplicity
  _atom_site_fract_x
  _atom_site_fract_y
  _atom_site_fract_z
  _atom_site_occupancy
  Ba  Ba1       1.0  0.9509735703468324  0.2689813375473022  0.8720678091049194  1.0000
  Ba  Ba2       1.0  0.42742341756820684  0.6368358135223388  0.5399887561798096  1.0000
  O   O1        1.0  0.03889474272727966  0.7946968674659729  0.554341197013855  1.0000
  O   O2        1.0  0.8252344727516175  0.5791906118392944  0.3374159634113312  1.0000
  Ba  Ba3       1.0  0.35398533940315247  0.7061335444450377  0.0322252362966538  1.0000
  O   O3        1.0  0.43364161252975475  0.9494287967681885  0.14772014319896698  1.0000
  Ti  Ti1       1.0  0.9314072132110597  0.6863426566123962  0.4475441873073578  1.0000
  O   O4        1.0  0.20507824420928958  0.9587394595146178  0.7180902361869812  1.0000
  Ba  Ba4       1.0  0.8805443048477175  0.7789862155914306  0.941027045249939  1.0000
  Ba  Ba5       1.0  0.5159103274345398  0.11215437203645705  0.4710070490837097  1.0000
  O   O5        1.0  0.1961326897144318  0.38819706439971924  0.9481093883514404  1.0000
  O   O6        1.0  0.6373271346092224  0.18869425356388092  0.712374210357666  1.0000
  O   O7        1.0  0.17753735184669495  0.4477532804012298  0.45061659812927246  1.0000
  O   O8        1.0  0.6912380456924438  0.6873559951782227  0.6919657588005066  1.0000
  O   O9        1.0  0.933290719985962  0.9325082898139954  0.2076452225446701  1.0000
  Ti  Ti2       1.0  0.45325165987014776  0.20730815827846527  0.9690635800361633  1.0000
  O   O10       1.0  0.5483158230781555  0.3051338493824005  0.07062031328678137  1.0000
  Ba  Ba6       1.0  0.026976445689797405  0.18284483253955838  0.3939553201198578  1.0000
