data_image39
_chemical_formula_structural       OBaTiO
_chemical_formula_sum              "O2 Ba1 Ti1"
_cell_length_a       4.06325385822046
_cell_length_b       4.0714665598568915
_cell_length_c       6.713697910308838
_cell_angle_alpha    72.36706324551892
_cell_angle_beta     72.40899894790529
_cell_angle_gamma    60.05054606168209

_space_group_name_H-M_alt    "P 1"
_space_group_IT_number       1

loop_
  _space_group_symop_operation_xyz
  'x, y, z'

loop_
  _atom_site_type_symbol
  _atom_site_label
  _atom_site_symmetry_multiplicity
  _atom_site_fract_x
  _atom_site_fract_y
  _atom_site_fract_z
  _atom_site_occupancy
  O   O1        1.0  0.3430324494838715  0.21103298664093018  0.9229763150215149  1.0000
  Ba  Ba1       1.0  0.9362793564796449  0.8040847182273865  0.14258985221385956  1.0000
  Ti  Ti1       1.0  0.43519830703735357  0.30346375703811646  0.6424788236618042  1.0000
  O   O2        1.0  0.529402494430542  0.39710950851440424  0.3625291585922241  1.0000
