data_image242
_chemical_formula_structural       Ba2TiBaO4TiO3
_chemical_formula_sum              "Ba3 Ti2 O7"
_cell_length_a       4.075513295075812
_cell_length_b       4.074488330091807
_cell_length_c       11.054058074951172
_cell_angle_alpha    100.66776657023298
_cell_angle_beta     100.64878690880776
_cell_angle_gamma    89.9306009745044

_space_group_name_H-M_alt    "P 1"
_space_group_IT_number       1

loop_
  _space_group_symop_operation_xyz
  'x, y, z'

loop_
  _atom_site_type_symbol
  _atom_site_label
  _atom_site_symmetry_multiplicity
  _atom_site_fract_x
  _atom_site_fract_y
  _atom_site_fract_z
  _atom_site_occupancy
  Ba  Ba1       1.0  0.46864765882492065  0.7320692539215088  0.06553599983453752  1.0000
  Ba  Ba2       1.0  0.6570082902908325  0.9210135340690613  0.4321723282337189  1.0000
  Ti  Ti1       1.0  0.08350574225187302  0.3462551236152649  0.2563153803348541  1.0000
  Ba  Ba3       1.0  0.2806817889213562  0.5446063280105591  0.7001533508300781  1.0000
  O   O1        1.0  0.7890604138374329  0.052790530025959015  0.6949358582496643  1.0000
  O   O2        1.0  0.8778867125511169  0.6504039168357849  0.8758655786514283  1.0000
  O   O3        1.0  0.38633453845977783  0.14288686215877533  0.8760782480239869  1.0000
  O   O4        1.0  0.05848740041255951  0.8142933249473572  0.25457581877708435  1.0000
  Ti  Ti2       1.0  0.8557729721069336  0.11799432337284088  0.8755238056182862  1.0000
  O   O5        1.0  0.14870978891849518  0.4126562178134918  0.43646678328514105  1.0000
  O   O6        1.0  0.9678950309753418  0.23184645175933838  0.06486044824123384  1.0000
  O   O7        1.0  0.5511010885238647  0.323922723531723  0.25459524989128113  1.0000
