data_image132
_chemical_formula_structural       TiO2Ba
_chemical_formula_sum              "Ti1 O2 Ba1"
_cell_length_a       4.038311964374949
_cell_length_b       4.107696680808764
_cell_length_c       4.037629127502441
_cell_angle_alpha    89.95804465238821
_cell_angle_beta     89.99686061732704
_cell_angle_gamma    89.96786646723406

_space_group_name_H-M_alt    "P 1"
_space_group_IT_number       1

loop_
  _space_group_symop_operation_xyz
  'x, y, z'

loop_
  _atom_site_type_symbol
  _atom_site_label
  _atom_site_symmetry_multiplicity
  _atom_site_fract_x
  _atom_site_fract_y
  _atom_site_fract_z
  _atom_site_occupancy
  Ti  Ti1       1.0  0.4490950405597687  0.8921387195587159  0.7949968576431274  1.0000
  O   O1        1.0  0.4496706426143646  0.891972005367279  0.2955305576324463  1.0000
  O   O2        1.0  0.9503710865974426  0.8921764492988588  0.7954065203666687  1.0000
  Ba  Ba1       1.0  0.9498912692070007  0.3921292722225189  0.2953389585018158  1.0000
