data_image594
_chemical_formula_structural       TiOBaO
_chemical_formula_sum              "Ti1 O2 Ba1"
_cell_length_a       3.3019032349695663
_cell_length_b       3.3034972141943366
_cell_length_c       6.289469242095947
_cell_angle_alpha    74.80727838129863
_cell_angle_beta     74.79853461272758
_cell_angle_gamma    60.07914359180737

_space_group_name_H-M_alt    "P 1"
_space_group_IT_number       1

loop_
  _space_group_symop_operation_xyz
  'x, y, z'

loop_
  _atom_site_type_symbol
  _atom_site_label
  _atom_site_symmetry_multiplicity
  _atom_site_fract_x
  _atom_site_fract_y
  _atom_site_fract_z
  _atom_site_occupancy
  Ti  Ti1       1.0  0.26241609454154974  0.8044328093528748  0.2723281979560852  1.0000
  O   O1        1.0  0.5395796895027161  0.08036268502473831  0.44121497869491577  1.0000
  Ba  Ba1       1.0  0.7621192932128906  0.30298304557800293  0.7731071710586548  1.0000
  O   O2        1.0  0.9852892160415649  0.5259422659873962  0.10441664606332776  1.0000
