data_image433
_chemical_formula_structural       Ti2BaO2TiO3BaO2
_chemical_formula_sum              "Ti3 Ba2 O7"
_cell_length_a       4.028278325995103
_cell_length_b       4.1274827235584315
_cell_length_c       11.015118598937988
_cell_angle_alpha    110.73291149135308
_cell_angle_beta     100.53369785273817
_cell_angle_gamma    89.91987736450149

_space_group_name_H-M_alt    "P 1"
_space_group_IT_number       1

loop_
  _space_group_symop_operation_xyz
  'x, y, z'

loop_
  _atom_site_type_symbol
  _atom_site_label
  _atom_site_symmetry_multiplicity
  _atom_site_fract_x
  _atom_site_fract_y
  _atom_site_fract_z
  _atom_site_occupancy
  Ti  Ti1       1.0  0.6230944991111755  0.6822773218154907  0.6336511373519897  1.0000
  Ti  Ti2       1.0  0.2283325344324112  0.9876691699028015  0.8419933319091797  1.0000
  Ba  Ba1       1.0  0.018048767000436783  0.9882696866989136  0.42739230394363403  1.0000
  O   O1        1.0  0.5341375470161438  0.5213296413421631  0.44683128595352173  1.0000
  O   O2        1.0  0.23328067362308502  0.42101076245307917  0.8516470789909363  1.0000
  Ti  Ti3       1.0  0.4046539068222046  0.2875029146671295  0.23198139667510986  1.0000
  O   O3        1.0  0.4330834448337555  0.8384162187576294  0.2434939593076706  1.0000
  O   O4        1.0  0.3319048285484314  0.12927572429180145  0.0425429418683052  1.0000
  O   O5        1.0  0.9408165812492371  0.32499173283576965  0.24212147295475006  1.0000
  Ba  Ba2       1.0  0.8221651315689087  0.629938781261444  0.03630687668919561  1.0000
  O   O6        1.0  0.12811864912509918  0.7111321091651917  0.6433014869689941  1.0000
  O   O7        1.0  0.721906304359436  0.9112322926521301  0.8289220929145813  1.0000
