data_image228
_chemical_formula_structural       TiOBaOBaOTiOBaO2TiBaO2
_chemical_formula_sum              "Ti3 O8 Ba4"
_cell_length_a       3.964280359706934
_cell_length_b       3.9614545915967927
_cell_length_c       17.66991424560547
_cell_angle_alpha    90.01821178895928
_cell_angle_beta     89.88418299670457
_cell_angle_gamma    89.95431536751177

_space_group_name_H-M_alt    "P 1"
_space_group_IT_number       1

loop_
  _space_group_symop_operation_xyz
  'x, y, z'

loop_
  _atom_site_type_symbol
  _atom_site_label
  _atom_site_symmetry_multiplicity
  _atom_site_fract_x
  _atom_site_fract_y
  _atom_site_fract_z
  _atom_site_occupancy
  Ti  Ti1       1.0  0.9733430743217468  0.45566350221633917  0.7452176809310913  1.0000
  O   O1        1.0  0.977668046951294  0.9550154209136964  0.09583389759063721  1.0000
  Ba  Ba1       1.0  0.9785934090614319  0.45428228378295904  0.9792817831039429  1.0000
  O   O2        1.0  0.4777337610721588  0.9559914469718933  0.22006987035274506  1.0000
  Ba  Ba2       1.0  0.47330206632614136  0.9563772678375245  0.6260116100311279  1.0000
  O   O3        1.0  0.4784216582775116  0.4549190998077393  0.09564980864524841  1.0000
  Ti  Ti2       1.0  0.9741775393486023  0.4556763172149659  0.49855634570121765  1.0000
  O   O4        1.0  0.47421568632125854  0.4557062685489655  0.5033957362174988  1.0000
  Ba  Ba3       1.0  0.47555413842201233  0.9554274678230287  0.3871152400970459  1.0000
  O   O5        1.0  0.9734699130058289  0.9553149342536927  0.7336368560791016  1.0000
  O   O6        1.0  0.47327131032943726  0.4547432959079743  0.7345051765441895  1.0000
  Ti  Ti3       1.0  0.47810545563697815  0.9547477364540101  0.09151507914066315  1.0000
  Ba  Ba4       1.0  0.9774981737136841  0.4557786583900452  0.20493729412555695  1.0000
  O   O7        1.0  0.9743495583534241  0.9559333920478822  0.5039033889770508  1.0000
  O   O8        1.0  0.4780995845794678  0.9542649984359742  0.9827274084091187  1.0000
