data_image492
_chemical_formula_structural       Ti2OBaOBa
_chemical_formula_sum              "Ti2 O2 Ba2"
_cell_length_a       3.7151296125030755
_cell_length_b       3.7158312928758797
_cell_length_c       10.94116497039795
_cell_angle_alpha    90.03587465627587
_cell_angle_beta     89.97953242771447
_cell_angle_gamma    89.98202544654113

_space_group_name_H-M_alt    "P 1"
_space_group_IT_number       1

loop_
  _space_group_symop_operation_xyz
  'x, y, z'

loop_
  _atom_site_type_symbol
  _atom_site_label
  _atom_site_symmetry_multiplicity
  _atom_site_fract_x
  _atom_site_fract_y
  _atom_site_fract_z
  _atom_site_occupancy
  Ti  Ti1       1.0  0.7062557935714722  0.4734894037246704  0.7808387875556946  1.0000
  Ti  Ti2       1.0  0.20586277544498444  0.9741915464401245  0.891858696937561  1.0000
  O   O1        1.0  0.7061440944671631  0.4738597869873047  0.6050982475280762  1.0000
  Ba  Ba1       1.0  0.7061156630516052  0.4737533032894134  0.12754984200000763  1.0000
  O   O2        1.0  0.20597830414772034  0.973734438419342  0.06783253699541092  1.0000
  Ba  Ba2       1.0  0.20608526468276978  0.9737855195999144  0.5455376505851746  1.0000
