data_image392
_chemical_formula_structural       Ba2TiO3TiO3
_chemical_formula_sum              "Ba2 Ti2 O6"
_cell_length_a       3.9334551109831244
_cell_length_b       3.928694632225233
_cell_length_c       10.151010513305664
_cell_angle_alpha    101.16652862941612
_cell_angle_beta     101.18530456317818
_cell_angle_gamma    89.99195669055901

_space_group_name_H-M_alt    "P 1"
_space_group_IT_number       1

loop_
  _space_group_symop_operation_xyz
  'x, y, z'

loop_
  _atom_site_type_symbol
  _atom_site_label
  _atom_site_symmetry_multiplicity
  _atom_site_fract_x
  _atom_site_fract_y
  _atom_site_fract_z
  _atom_site_occupancy
  Ba  Ba1       1.0  0.6309125423431398  0.260132908821106  0.4566311836242676  1.0000
  Ba  Ba2       1.0  0.8461740612983705  0.47575137019157415  0.8877862691879272  1.0000
  Ti  Ti1       1.0  0.02836438827216626  0.6583064198493959  0.2530691623687744  1.0000
  O   O1        1.0  0.7377479076385499  0.866265892982483  0.6696529388427734  1.0000
  O   O2        1.0  0.23742263019084936  0.3667332828044892  0.669726550579071  1.0000
  O   O3        1.0  0.5158520340919496  0.6458881497383119  0.22871358692646027  1.0000
  Ti  Ti2       1.0  0.24592505395412448  0.875597357749939  0.6861801743507385  1.0000
  O   O4        1.0  0.016168415546417236  0.1462768018245697  0.2281927764415741  1.0000
  O   O5        1.0  0.12452937662601474  0.7537692189216615  0.4434565305709839  1.0000
  O   O6        1.0  0.33987066149711614  0.9689366817474366  0.8734384179115295  1.0000
