data_image432
_chemical_formula_structural       BaOBaO3TiBaO2
_chemical_formula_sum              "Ba3 O6 Ti1"
_cell_length_a       6.286464272088429
_cell_length_b       6.287142346275252
_cell_length_c       6.287509441375732
_cell_angle_alpha    60.0635172789035
_cell_angle_beta     60.0652442241749
_cell_angle_gamma    60.09926746110209

_space_group_name_H-M_alt    "P 1"
_space_group_IT_number       1

loop_
  _space_group_symop_operation_xyz
  'x, y, z'

loop_
  _atom_site_type_symbol
  _atom_site_label
  _atom_site_symmetry_multiplicity
  _atom_site_fract_x
  _atom_site_fract_y
  _atom_site_fract_z
  _atom_site_occupancy
  Ba  Ba1       1.0  0.33143851161003113  0.07565054297447205  0.034251295030117035  1.0000
  O   O1        1.0  0.3629705607891083  0.10723147541284563  0.5026150345802307  1.0000
  Ba  Ba2       1.0  0.08152220398187637  0.8259764313697815  0.7840041518211365  1.0000
  O   O2        1.0  0.8002699017524719  0.544667661190033  0.06572094559669495  1.0000
  O   O3        1.0  0.363023966550827  0.5447365641593933  0.5026330947875975  1.0000
  O   O4        1.0  0.7998492121696472  0.10690211504697801  0.06580054759979241  1.0000
  Ti  Ti1       1.0  0.5812833905220032  0.3256607949733734  0.2842067778110504  1.0000
  Ba  Ba3       1.0  0.8313845992088317  0.575930655002594  0.5340273380279541  1.0000
  O   O5        1.0  0.3625539541244507  0.5443797111511232  0.06566406786441796  1.0000
  O   O6        1.0  0.8001781105995178  0.10746027529239656  0.5025747418403625  1.0000
