data_image101
_chemical_formula_structural       Ba2TiO2TiOBaO4
_chemical_formula_sum              "Ba3 Ti2 O7"
_cell_length_a       4.076534129547938
_cell_length_b       4.07509144770798
_cell_length_c       11.084628105163574
_cell_angle_alpha    100.56327963027272
_cell_angle_beta     100.58997967493973
_cell_angle_gamma    89.86492169649532

_space_group_name_H-M_alt    "P 1"
_space_group_IT_number       1

loop_
  _space_group_symop_operation_xyz
  'x, y, z'

loop_
  _atom_site_type_symbol
  _atom_site_label
  _atom_site_symmetry_multiplicity
  _atom_site_fract_x
  _atom_site_fract_y
  _atom_site_fract_z
  _atom_site_occupancy
  Ba  Ba1       1.0  0.3134326636791229  0.8461830615997313  0.17904281616210938  1.0000
  Ba  Ba2       1.0  0.9470375776290894  0.4785631895065307  0.44690847396850586  1.0000
  Ti  Ti1       1.0  0.5485739707946777  0.08127313107252121  0.6225190758705139  1.0000
  O   O1        1.0  0.5275733470916748  0.5480070114135742  0.6231731176376343  1.0000
  O   O2        1.0  0.4321345090866089  0.9650834798812866  0.44065773487091064  1.0000
  Ti  Ti2       1.0  0.7411330342292786  0.2721647024154663  0.0028139352798461914  1.0000
  O   O3        1.0  0.6175745725631714  0.14945252239704132  0.8117541074752808  1.0000
  Ba  Ba3       1.0  0.1325167417526245  0.6651018857955933  0.8127248287200928  1.0000
  O   O4        1.0  0.2048736959695816  0.2487380355596542  0.00161264487542212  1.0000
  O   O5        1.0  0.8038684725761414  0.3361600935459137  0.1834036111831665  1.0000
  O   O6        1.0  0.715432345867157  0.7373384833335875  0.0016949328128248254  1.0000
  O   O7        1.0  0.015808552503585815  0.05924440547823906  0.6230506300926208  1.0000
