data_image555
_chemical_formula_structural       BaO2Ti
_chemical_formula_sum              "Ba1 O2 Ti1"
_cell_length_a       3.2902583968417045
_cell_length_b       3.2908069837000977
_cell_length_c       6.267124652862549
_cell_angle_alpha    74.84179033198183
_cell_angle_beta     74.8413121773052
_cell_angle_gamma    60.150403750059574

_space_group_name_H-M_alt    "P 1"
_space_group_IT_number       1

loop_
  _space_group_symop_operation_xyz
  'x, y, z'

loop_
  _atom_site_type_symbol
  _atom_site_label
  _atom_site_symmetry_multiplicity
  _atom_site_fract_x
  _atom_site_fract_y
  _atom_site_fract_z
  _atom_site_occupancy
  Ba  Ba1       1.0  0.7074175477027893  0.959617555141449  0.12667010724544525  1.0000
  O   O1        1.0  0.9306122660636901  0.18303270637989044  0.4575015306472778  1.0000
  O   O2        1.0  0.48400032520294184  0.7362496852874756  0.7957947850227355  1.0000
  Ti  Ti1       1.0  0.2070159316062927  0.45917809009552  0.626322865486145  1.0000
