data_image421
_chemical_formula_structural       Ti2BaO2BaO4
_chemical_formula_sum              "Ti2 Ba2 O6"
_cell_length_a       5.720688888176842
_cell_length_b       5.721455181142394
_cell_length_c       5.720961570739746
_cell_angle_alpha    60.03602425550444
_cell_angle_beta     60.037145284165945
_cell_angle_gamma    60.03202464228533

_space_group_name_H-M_alt    "P 1"
_space_group_IT_number       1

loop_
  _space_group_symop_operation_xyz
  'x, y, z'

loop_
  _atom_site_type_symbol
  _atom_site_label
  _atom_site_symmetry_multiplicity
  _atom_site_fract_x
  _atom_site_fract_y
  _atom_site_fract_z
  _atom_site_occupancy
  Ti  Ti1       1.0  0.44170475006103516  0.6361086368560791  0.2979770600795746  1.0000
  Ti  Ti2       1.0  0.9417027235031128  0.13618521392345428  0.7979927062988281  1.0000
  Ba  Ba1       1.0  0.19172015786170962  0.38630765676498413  0.048543781042099  1.0000
  O   O1        1.0  0.6916795372962952  0.3865615129470825  0.04812377318739891  1.0000
  O   O2        1.0  0.19184184074401855  0.8862900137901306  0.548143744468689  1.0000
  Ba  Ba2       1.0  0.6918396353721619  0.8863112926483154  0.548098623752594  1.0000
  O   O3        1.0  0.19180878996849057  0.8864706158638  0.04808003082871437  1.0000
  O   O4        1.0  0.1916729509830475  0.386234849691391  0.5483377575874329  1.0000
  O   O5        1.0  0.6917296051979065  0.8863863945007324  0.048089783638715744  1.0000
  O   O6        1.0  0.6917234659194946  0.38628745079040533  0.5482600331306458  1.0000
