data_image631
_chemical_formula_structural       BaO2TiOBaO4TiBa
_chemical_formula_sum              "Ba3 O7 Ti2"
_cell_length_a       4.080725854199518
_cell_length_b       4.085748462506604
_cell_length_c       11.105100631713867
_cell_angle_alpha    100.35284187619513
_cell_angle_beta     100.36815401578737
_cell_angle_gamma    89.69737742787252

_space_group_name_H-M_alt    "P 1"
_space_group_IT_number       1

loop_
  _space_group_symop_operation_xyz
  'x, y, z'

loop_
  _atom_site_type_symbol
  _atom_site_label
  _atom_site_symmetry_multiplicity
  _atom_site_fract_x
  _atom_site_fract_y
  _atom_site_fract_z
  _atom_site_occupancy
  Ba  Ba1       1.0  0.5999889373779297  0.5663780570030212  0.12880249321460724  1.0000
  O   O1        1.0  0.1159113422036171  0.08222290873527527  0.13494184613227844  1.0000
  O   O2        1.0  0.7474427819252014  0.713580310344696  0.3926451504230499  1.0000
  Ti  Ti1       1.0  0.9961927533149719  0.9625217914581299  0.9538036584854126  1.0000
  O   O3        1.0  0.9331692457199097  0.9005170464515686  0.7641383409500122  1.0000
  Ba  Ba2       1.0  0.23607277870178223  0.20223143696784973  0.39832091331481934  1.0000
  O   O4        1.0  0.5347768068313599  0.9892446398735046  0.9530090689659119  1.0000
  O   O5        1.0  0.34531307220458984  0.8003620505332947  0.574330747127533  1.0000
  O   O6        1.0  0.8337482213973999  0.3118995726108551  0.574378490447998  1.0000
  O   O7        1.0  0.021965542808175087  0.5016070604324341  0.9529059529304504  1.0000
  Ti  Ti2       1.0  0.8104220032691956  0.7769134044647217  0.5741032958030701  1.0000
  Ba  Ba3       1.0  0.4164489507675171  0.3832778036594391  0.7639173269271851  1.0000
