data_image461
_chemical_formula_structural       BaTiBaTiBaO6
_chemical_formula_sum              "Ba3 Ti2 O6"
_cell_length_a       4.024001479207254
_cell_length_b       4.023203095472042
_cell_length_c       11.249227523803711
_cell_angle_alpha    100.25434964253249
_cell_angle_beta     100.2563932470537
_cell_angle_gamma    90.00518655669565

_space_group_name_H-M_alt    "P 1"
_space_group_IT_number       1

loop_
  _space_group_symop_operation_xyz
  'x, y, z'

loop_
  _atom_site_type_symbol
  _atom_site_label
  _atom_site_symmetry_multiplicity
  _atom_site_fract_x
  _atom_site_fract_y
  _atom_site_fract_z
  _atom_site_occupancy
  Ba  Ba1       1.0  0.4811881482601165  0.609449565410614  0.21183842420578003  1.0000
  Ti  Ti1       1.0  0.8819826245307921  0.010426316410303116  0.012858418747782699  1.0000
  Ba  Ba2       1.0  0.2990804314613342  0.4271158277988434  0.847168505191803  1.0000
  Ti  Ti2       1.0  0.08117396384477614  0.20860496163368225  0.4107927083969116  1.0000
  Ba  Ba3       1.0  0.6639701724052428  0.7917963862419128  0.5767853856086731  1.0000
  O   O1        1.0  0.8896754384040831  0.5181976556777954  0.028018642216920853  1.0000
  O   O2        1.0  0.38994994759559626  0.017853777855634686  0.02796395681798458  1.0000
  O   O3        1.0  0.17113795876502988  0.29907661676406855  0.5906642079353333  1.0000
  O   O4        1.0  0.5731459259986877  0.2008555233478546  0.3955446779727936  1.0000
  O   O5        1.0  0.7917261123657225  0.9201031923294067  0.8333656191825867  1.0000
  O   O6        1.0  0.07341250777244568  0.7007676362991332  0.39543616771698  1.0000
