data_image298
_chemical_formula_structural       BaTiBaTiO4
_chemical_formula_sum              "Ba2 Ti2 O4"
_cell_length_a       4.152491603841698
_cell_length_b       5.84572545092172
_cell_length_c       6.282489776611328
_cell_angle_alpha    117.76089037721869
_cell_angle_beta     109.21745609341706
_cell_angle_gamma    89.9518280807098

_space_group_name_H-M_alt    "P 1"
_space_group_IT_number       1

loop_
  _space_group_symop_operation_xyz
  'x, y, z'

loop_
  _atom_site_type_symbol
  _atom_site_label
  _atom_site_symmetry_multiplicity
  _atom_site_fract_x
  _atom_site_fract_y
  _atom_site_fract_z
  _atom_site_occupancy
  Ba  Ba1       1.0  0.6563626527786255  0.5517948269844055  0.570296585559845  1.0000
  Ti  Ti1       1.0  0.1977437138557434  0.09342508763074875  0.6530528068542482  1.0000
  Ba  Ba2       1.0  0.45373901724815363  0.8494606018066406  0.1651803404092789  1.0000
  Ti  Ti2       1.0  0.9127907752990722  0.30728939175605774  0.08227431774139406  1.0000
  O   O1        1.0  0.05508876219391822  0.7005586624145508  0.3675512075424195  1.0000
  O   O2        1.0  0.3966285288333893  0.29143768548965454  0.050108123570680625  1.0000
  O   O3        1.0  0.05537271872162819  0.20087680220603946  0.3682984411716462  1.0000
  O   O4        1.0  0.7135952711105347  0.10860820859670638  0.684851109981537  1.0000
