data_image550
_chemical_formula_structural       OBaTiBaTiO5
_chemical_formula_sum              "O6 Ba2 Ti2"
_cell_length_a       4.038981442266481
_cell_length_b       4.040598869432792
_cell_length_c       8.085082054138184
_cell_angle_alpha    89.99957903274053
_cell_angle_beta     89.99727042880939
_cell_angle_gamma    89.98097359722524

_space_group_name_H-M_alt    "P 1"
_space_group_IT_number       1

loop_
  _space_group_symop_operation_xyz
  'x, y, z'

loop_
  _atom_site_type_symbol
  _atom_site_label
  _atom_site_symmetry_multiplicity
  _atom_site_fract_x
  _atom_site_fract_y
  _atom_site_fract_z
  _atom_site_occupancy
  O   O1        1.0  0.855270266532898  0.7240293622016907  0.7663246989250183  1.0000
  Ba  Ba1       1.0  0.35473838448524475  0.7208935618400574  0.5166088938713074  1.0000
  Ti  Ti1       1.0  0.8558729290962219  0.22231678664684296  0.2672983705997467  1.0000
  Ba  Ba2       1.0  0.3574046194553375  0.7229637503623964  0.01642528921365738  1.0000
  Ti  Ti2       1.0  0.854464590549469  0.22316662967205048  0.7673214673995972  1.0000
  O   O2        1.0  0.3554902970790863  0.2225419133901596  0.7679082751274109  1.0000
  O   O3        1.0  0.854125440120697  0.22205887734889984  0.5178605318069458  1.0000
  O   O4        1.0  0.8548134565353394  0.2234362065792084  0.018065009266138077  1.0000
  O   O5        1.0  0.35635218024253845  0.22159385681152344  0.26735198497772217  1.0000
  O   O6        1.0  0.8559845685958862  0.7230136394500732  0.26690033078193665  1.0000
