data_image611
_chemical_formula_structural       BaOBa2OTiBaTiOTiO8
_chemical_formula_sum              "Ba4 O11 Ti3"
_cell_length_a       5.817172527696003
_cell_length_b       5.913002591438045
_cell_length_c       9.765263557434082
_cell_angle_alpha    88.30807580099027
_cell_angle_beta     90.03281473072552
_cell_angle_gamma    60.711017743594034

_space_group_name_H-M_alt    "P 1"
_space_group_IT_number       1

loop_
  _space_group_symop_operation_xyz
  'x, y, z'

loop_
  _atom_site_type_symbol
  _atom_site_label
  _atom_site_symmetry_multiplicity
  _atom_site_fract_x
  _atom_site_fract_y
  _atom_site_fract_z
  _atom_site_occupancy
  Ba  Ba1       1.0  0.4307926297187805  0.5176557898521423  0.9913250803947449  1.0000
  O   O1        1.0  0.10492198169231415  0.702348530292511  0.49361151456832886  1.0000
  Ba  Ba2       1.0  0.7489953637123108  0.8839954137802124  0.2859647572040558  1.0000
  Ba  Ba3       1.0  0.09618820250034332  0.1914997100830078  0.5372715592384338  1.0000
  O   O2        1.0  0.5928660035133362  0.19762150943279266  0.5101982951164246  1.0000
  Ti  Ti1       1.0  0.4378495514392853  0.5100322365760803  0.4269915819168091  1.0000
  Ba  Ba4       1.0  0.7704899907112122  0.8382290005683898  0.7252697348594666  1.0000
  Ti  Ti2       1.0  0.10168626159429549  0.1744745820760727  0.8766307234764099  1.0000
  O   O3        1.0  0.26739421486854553  0.3243909180164337  0.788187563419342  1.0000
  Ti  Ti3       1.0  0.05001267418265343  0.28135594725608826  0.16326479613780975  1.0000
  O   O4        1.0  0.7866845726966858  0.325674444437027  0.7891111373901367  1.0000
  O   O5        1.0  0.9352343082427979  0.5140528082847595  0.02441340684890747  1.0000
  O   O6        1.0  0.7498161196708679  0.3739955425262451  0.27396440505981445  1.0000
  O   O7        1.0  0.9888073801994324  0.025355694815516472  0.060293883085250854  1.0000
  O   O8        1.0  0.25306472182273865  0.8670265674591063  0.7878343462944031  1.0000
  O   O9        1.0  0.25728833675384527  0.370832234621048  0.27377814054489136  1.0000
  O   O10       1.0  0.36617377400398254  0.01949916034936905  0.06091097369790077  1.0000
  O   O11       1.0  0.5746310949325562  0.7025620341300963  0.49518340826034546  1.0000
