data_image540
_chemical_formula_structural       TiOBaO
_chemical_formula_sum              "Ti1 O2 Ba1"
_cell_length_a       3.284099972937484
_cell_length_b       3.2818948107268633
_cell_length_c       6.28289794921875
_cell_angle_alpha    74.92273485593554
_cell_angle_beta     74.89642477052605
_cell_angle_gamma    60.12344484799608

_space_group_name_H-M_alt    "P 1"
_space_group_IT_number       1

loop_
  _space_group_symop_operation_xyz
  'x, y, z'

loop_
  _atom_site_type_symbol
  _atom_site_label
  _atom_site_symmetry_multiplicity
  _atom_site_fract_x
  _atom_site_fract_y
  _atom_site_fract_z
  _atom_site_occupancy
  Ti  Ti1       1.0  0.8300649523735046  0.41254016757011414  0.43642824888229365  1.0000
  O   O1        1.0  0.10706806182861328  0.6898127198219299  0.6036325693130493  1.0000
  Ba  Ba1       1.0  0.329886257648468  0.9123231768608093  0.9355556368827819  1.0000
  O   O2        1.0  0.5524725317955017  0.13531261682510376  0.2679864168167114  1.0000
