data_image703
_chemical_formula_structural       O2TiOBa
_chemical_formula_sum              "O3 Ti1 Ba1"
_cell_length_a       4.041572329744873
_cell_length_b       4.067892518057033
_cell_length_c       4.079253673553467
_cell_angle_alpha    89.66030990097391
_cell_angle_beta     90.35912704697574
_cell_angle_gamma    90.26426937794692

_space_group_name_H-M_alt    "P 1"
_space_group_IT_number       1

loop_
  _space_group_symop_operation_xyz
  'x, y, z'

loop_
  _atom_site_type_symbol
  _atom_site_label
  _atom_site_symmetry_multiplicity
  _atom_site_fract_x
  _atom_site_fract_y
  _atom_site_fract_z
  _atom_site_occupancy
  O   O1        1.0  0.10527622699737549  0.3261224925518036  0.785993754863739  1.0000
  O   O2        1.0  0.6149598956108093  0.3237251937389374  0.29575005173683167  1.0000
  Ti  Ti1       1.0  0.07936102151870728  0.3569096326828003  0.33140483498573303  1.0000
  O   O3        1.0  0.10629364848136902  0.8130912780761719  0.2976441979408264  1.0000
  Ba  Ba1       1.0  0.5925904512405396  0.8414122462272644  0.8150642514228821  1.0000
