data_image397
_chemical_formula_structural       OBa2OTiBaO2
_chemical_formula_sum              "O4 Ba3 Ti1"
_cell_length_a       6.1123078949307805
_cell_length_b       6.101704940227639
_cell_length_c       6.715286731719971
_cell_angle_alpha    116.8768324772777
_cell_angle_beta     89.88746148163804
_cell_angle_gamma    119.71627819750326

_space_group_name_H-M_alt    "P 1"
_space_group_IT_number       1

loop_
  _space_group_symop_operation_xyz
  'x, y, z'

loop_
  _atom_site_type_symbol
  _atom_site_label
  _atom_site_symmetry_multiplicity
  _atom_site_fract_x
  _atom_site_fract_y
  _atom_site_fract_z
  _atom_site_occupancy
  O   O1        1.0  0.7139679193496703  0.9090507626533509  0.2739830315113068  1.0000
  Ba  Ba1       1.0  0.3315410614013672  0.1451665163040161  0.12865406274795532  1.0000
  Ba  Ba2       1.0  0.12011697143316276  0.7187490463256837  0.48623785376548767  1.0000
  O   O2        1.0  0.8856716752052306  0.7600106596946716  0.8036737442016602  1.0000
  Ti  Ti1       1.0  0.600207507610321  0.6829966902732849  0.9342864155769348  1.0000
  Ba  Ba3       1.0  0.8633278608322142  0.20836196839809418  0.7216908931732178  1.0000
  O   O3        1.0  0.3921429514884948  0.7599685192108154  0.8036190867424011  1.0000
  O   O4        1.0  0.39392012357711786  0.27020180225372314  0.8061727285385132  1.0000
