data_image334
_chemical_formula_structural       BaTiBaOTiO5
_chemical_formula_sum              "Ba2 Ti2 O6"
_cell_length_a       4.251090110790844
_cell_length_b       5.65752126462046
_cell_length_c       5.654834270477295
_cell_angle_alpha    89.99559020247273
_cell_angle_beta     89.99028997566747
_cell_angle_gamma    90.01421612790263

_space_group_name_H-M_alt    "P 1"
_space_group_IT_number       1

loop_
  _space_group_symop_operation_xyz
  'x, y, z'

loop_
  _atom_site_type_symbol
  _atom_site_label
  _atom_site_symmetry_multiplicity
  _atom_site_fract_x
  _atom_site_fract_y
  _atom_site_fract_z
  _atom_site_occupancy
  Ba  Ba1       1.0  0.7143954634666443  0.2526644170284272  0.716012716293335  1.0000
  Ti  Ti1       1.0  0.23311659693717957  0.25320178270339966  0.21603642404079437  1.0000
  Ba  Ba2       1.0  0.71429044008255  0.7530737519264221  0.21703872084617615  1.0000
  O   O1        1.0  0.17781516909599304  0.5032506585121155  0.46610620617866516  1.0000
  Ti  Ti2       1.0  0.2329210489988327  0.7529803514480591  0.7163989543914795  1.0000
  O   O2        1.0  0.6554902791976929  0.2531817555427552  0.21624845266342163  1.0000
  O   O3        1.0  0.17804469168186188  0.003327567595988512  0.9667794108390808  1.0000
  O   O4        1.0  0.17801114916801453  0.5027161836624146  0.9667060375213623  1.0000
  O   O5        1.0  0.17814257740974426  0.002934660064056516  0.4666479825973511  1.0000
  O   O6        1.0  0.6556231379508972  0.7530286312103273  0.7165733575820923  1.0000
