data_image688
_chemical_formula_structural       BaTiO2TiO2BaOTiO2
_chemical_formula_sum              "Ba2 Ti3 O7"
_cell_length_a       3.9949051582069117
_cell_length_b       4.0263303275726745
_cell_length_c       10.452727317810059
_cell_angle_alpha    101.08544110566683
_cell_angle_beta     89.96756593756275
_cell_angle_gamma    90.00817824152587

_space_group_name_H-M_alt    "P 1"
_space_group_IT_number       1

loop_
  _space_group_symop_operation_xyz
  'x, y, z'

loop_
  _atom_site_type_symbol
  _atom_site_label
  _atom_site_symmetry_multiplicity
  _atom_site_fract_x
  _atom_site_fract_y
  _atom_site_fract_z
  _atom_site_occupancy
  Ba  Ba1       1.0  0.5420053005218506  0.48683872818946844  0.3590426445007324  1.0000
  Ti  Ti1       1.0  0.04231145605444908  0.28533422946929937  0.9582932591438293  1.0000
  O   O1        1.0  0.042200565338134766  0.3824098408222199  0.14789099991321564  1.0000
  O   O2        1.0  0.0422564372420311  0.5899782776832582  0.5637097954750061  1.0000
  Ti  Ti2       1.0  0.0426875501871109  0.8918978571891786  0.16667371988296512  1.0000
  O   O3        1.0  0.04181923344731331  0.19404913485050204  0.7721543312072754  1.0000
  O   O4        1.0  0.5422234535217285  0.09028051048517229  0.5657832026481628  1.0000
  Ba  Ba2       1.0  0.5422631502151489  0.6813204288482667  0.7493025064468384  1.0000
  O   O5        1.0  0.5424333214759827  0.8973231911659242  0.17560444772243503  1.0000
  Ti  Ti3       1.0  0.042407628148794174  0.08461717516183853  0.555289089679718  1.0000
  O   O6        1.0  0.04287625849246979  0.7899193167686464  0.9644390940666199  1.0000
  O   O7        1.0  0.04229150712490082  0.9889971017837526  0.3627331852912903  1.0000
