data_image698
_chemical_formula_structural       OBaTiOBaO3TiO2
_chemical_formula_sum              "O7 Ba2 Ti2"
_cell_length_a       3.9493171526044133
_cell_length_b       3.9479642746494914
_cell_length_c       11.225296974182129
_cell_angle_alpha    100.04494273813087
_cell_angle_beta     100.07063885269939
_cell_angle_gamma    90.02812237552918

_space_group_name_H-M_alt    "P 1"
_space_group_IT_number       1

loop_
  _space_group_symop_operation_xyz
  'x, y, z'

loop_
  _atom_site_type_symbol
  _atom_site_label
  _atom_site_symmetry_multiplicity
  _atom_site_fract_x
  _atom_site_fract_y
  _atom_site_fract_z
  _atom_site_occupancy
  O   O1        1.0  0.5737566351890564  0.3758720457553863  0.5819824934005737  1.0000
  Ba  Ba1       1.0  0.3491215705871582  0.6507589817047119  0.13010726869106293  1.0000
  Ti  Ti1       1.0  0.7531033754348755  0.05449811369180679  0.9384917616844177  1.0000
  O   O2        1.0  0.48308902978897095  0.7845134735107421  0.3982234001159668  1.0000
  Ba  Ba2       1.0  0.9868817925453186  0.28828009963035583  0.40682873129844666  1.0000
  O   O3        1.0  0.7623180150985718  0.5629140734672546  0.956428587436676  1.0000
  O   O4        1.0  0.6677097082138062  0.9692915081977844  0.7686987519264221  1.0000
  O   O5        1.0  0.07383540272712708  0.8754618167877196  0.5812370181083679  1.0000
  Ti  Ti2       1.0  0.5823201537132263  0.8841143250465393  0.5984799265861511  1.0000
  O   O6        1.0  0.26169881224632263  0.06333731859922409  0.955784261226654  1.0000
  O   O7        1.0  0.8531929850578308  0.15470461547374723  0.13970904052257538  1.0000
