data_image308
_chemical_formula_structural       TiOTiO3BaOBaO
_chemical_formula_sum              "Ti2 O6 Ba2"
_cell_length_a       5.092872526987888
_cell_length_b       5.864416136166342
_cell_length_c       5.8655219078063965
_cell_angle_alpha    120.05191168359711
_cell_angle_beta     90.02225526286895
_cell_angle_gamma    90.01824593985167

_space_group_name_H-M_alt    "P 1"
_space_group_IT_number       1

loop_
  _space_group_symop_operation_xyz
  'x, y, z'

loop_
  _atom_site_type_symbol
  _atom_site_label
  _atom_site_symmetry_multiplicity
  _atom_site_fract_x
  _atom_site_fract_y
  _atom_site_fract_z
  _atom_site_occupancy
  Ti  Ti1       1.0  0.3786419928073883  0.6198810338973999  0.6120977401733398  1.0000
  O   O1        1.0  0.6289481520652771  0.32114851474761963  0.4625423848628998  1.0000
  Ti  Ti2       1.0  0.8791367411613464  0.6198382377624512  0.6119915843009949  1.0000
  O   O2        1.0  0.6289628148078918  0.7692855596542358  0.910671055316925  1.0000
  O   O3        1.0  0.6288530230522156  0.769010901451111  0.46279889345169073  1.0000
  O   O4        1.0  0.12883757054805756  0.4703764319419861  0.31306740641593933  1.0000
  Ba  Ba1       1.0  0.1289082020521164  0.9535118937492372  0.27869284152984625  1.0000
  O   O5        1.0  0.12877535820007324  0.47068014740943914  0.7614110112190247  1.0000
  Ba  Ba2       1.0  0.6303691864013672  0.28593605756759644  0.9453545808792114  1.0000
  O   O6        1.0  0.12872709333896637  0.9189217090606691  0.7615352272987366  1.0000
