data_image466
_chemical_formula_structural       Ba3OBaO2Ba3OTi3O6
_chemical_formula_sum              "Ba7 O10 Ti3"
_cell_length_a       7.674685433030308
_cell_length_b       7.184808487091772
_cell_length_c       7.371742248535156
_cell_angle_alpha    83.78799307321943
_cell_angle_beta     75.26003001530292
_cell_angle_gamma    74.8430457490552

_space_group_name_H-M_alt    "P 1"
_space_group_IT_number       1

loop_
  _space_group_symop_operation_xyz
  'x, y, z'

loop_
  _atom_site_type_symbol
  _atom_site_label
  _atom_site_symmetry_multiplicity
  _atom_site_fract_x
  _atom_site_fract_y
  _atom_site_fract_z
  _atom_site_occupancy
  Ba  Ba1       1.0  0.828857660293579  0.862229824066162  0.08749193698167801  1.0000
  Ba  Ba2       1.0  0.3984405696392059  0.31061211228370667  0.3008616864681244  1.0000
  Ba  Ba3       1.0  0.7394661307334899  0.4364003241062164  0.8277319073677063  1.0000
  O   O1        1.0  0.40505278110504145  0.9410136342048645  0.4380589723587036  1.0000
  Ba  Ba4       1.0  0.3150075674057007  0.8655703067779541  0.10424260050058365  1.0000
  O   O2        1.0  0.39115199446678156  0.7229917645454407  0.7519204616546631  1.0000
  O   O3        1.0  0.12079428881406785  0.58535897731781  0.20339329540729523  1.0000
  Ba  Ba5       1.0  0.6463897228240967  0.9921251535415648  0.6489668488502502  1.0000
  Ba  Ba6       1.0  0.2435774207115173  0.4179444909095764  0.8314582109451294  1.0000
  Ba  Ba7       1.0  0.9016669392585753  0.32860308885574335  0.30211672186851507  1.0000
  O   O4        1.0  0.6046981811523438  0.5920909643173217  0.18752419948577884  1.0000
  Ti  Ti1       1.0  0.029952883720397977  0.6764331459999083  0.4645004868507385  1.0000
  Ti  Ti2       1.0  0.51888507604599  0.650804877281189  0.4724169969558716  1.0000
  Ti  Ti3       1.0  0.17333287000656125  0.9055792093276976  0.6424280405044556  1.0000
  O   O5        1.0  0.01748390123248103  0.9540163874626159  0.4212365448474884  1.0000
  O   O6        1.0  0.5713713765144348  0.36501345038413996  0.554619312286377  1.0000
  O   O7        1.0  0.9851770401000977  0.7220210433006287  0.7463589906692505  1.0000
  O   O8        1.0  0.5421138405799866  0.15329836308956143  0.9798215627670288  1.0000
  O   O9        1.0  0.07304636389017105  0.08185604214668273  0.838506281375885  1.0000
  O   O10       1.0  0.7756593823432921  0.6552472710609435  0.4855622947216034  1.0000
