data_image81
_chemical_formula_structural       BaOBaTi2O3
_chemical_formula_sum              "Ba2 O4 Ti2"
_cell_length_a       4.003282505510145
_cell_length_b       3.819552420169786
_cell_length_c       8.48592472076416
_cell_angle_alpha    83.90081459285786
_cell_angle_beta     89.90347826970053
_cell_angle_gamma    89.98116484336087

_space_group_name_H-M_alt    "P 1"
_space_group_IT_number       1

loop_
  _space_group_symop_operation_xyz
  'x, y, z'

loop_
  _atom_site_type_symbol
  _atom_site_label
  _atom_site_symmetry_multiplicity
  _atom_site_fract_x
  _atom_site_fract_y
  _atom_site_fract_z
  _atom_site_occupancy
  Ba  Ba1       1.0  0.4349842965602875  0.4711379408836365  0.6981748938560486  1.0000
  O   O1        1.0  0.9331649541854858  0.9661413431167603  0.6650072932243347  1.0000
  Ba  Ba2       1.0  0.9326173663139343  0.8943634033203125  0.025032633915543556  1.0000
  Ti  Ti1       1.0  0.93356853723526  0.9843435287475586  0.43236014246940613  1.0000
  Ti  Ti2       1.0  0.4331117272377014  0.3777855634689331  0.29159095883369446  1.0000
  O   O2        1.0  0.4335486888885498  0.8672670125961304  0.40813517570495605  1.0000
  O   O3        1.0  0.9331774711608887  0.4952499866485595  0.31458985805511475  1.0000
  O   O4        1.0  0.4334879219532013  0.3982933759689331  0.058632966130971895  1.0000
