data_image623
_chemical_formula_structural       BaTiO2
_chemical_formula_sum              "Ba1 Ti1 O2"
_cell_length_a       3.2977168988537473
_cell_length_b       3.2961059889099764
_cell_length_c       6.278636455535889
_cell_angle_alpha    74.79726408168582
_cell_angle_beta     74.78137799650521
_cell_angle_gamma    60.05251245828226

_space_group_name_H-M_alt    "P 1"
_space_group_IT_number       1

loop_
  _space_group_symop_operation_xyz
  'x, y, z'

loop_
  _atom_site_type_symbol
  _atom_site_label
  _atom_site_symmetry_multiplicity
  _atom_site_fract_x
  _atom_site_fract_y
  _atom_site_fract_z
  _atom_site_occupancy
  Ba  Ba1       1.0  0.028584240004420284  0.7688412070274353  0.04859041795134545  1.0000
  Ti  Ti1       1.0  0.528602361679077  0.26857516169548035  0.5489928126335144  1.0000
  O   O1        1.0  0.8056345582008362  0.5460207462310791  0.7176816463470459  1.0000
  O   O2        1.0  0.25104486942291265  0.9916736483573914  0.37984564900398254  1.0000
