data_image923
_chemical_formula_structural       TiBaO2
_chemical_formula_sum              "Ti1 Ba1 O2"
_cell_length_a       3.312184952070108
_cell_length_b       3.3144916031554037
_cell_length_c       6.30998420715332
_cell_angle_alpha    74.82578191129055
_cell_angle_beta     74.8031326829672
_cell_angle_gamma    60.059431816464425

_space_group_name_H-M_alt    "P 1"
_space_group_IT_number       1

loop_
  _space_group_symop_operation_xyz
  'x, y, z'

loop_
  _atom_site_type_symbol
  _atom_site_label
  _atom_site_symmetry_multiplicity
  _atom_site_fract_x
  _atom_site_fract_y
  _atom_site_fract_z
  _atom_site_occupancy
  Ti  Ti1       1.0  0.7026368379592896  0.1333286315202713  0.7073080539703369  1.0000
  Ba  Ba1       1.0  0.2035798728466034  0.6335023641586304  0.20728249847888947  1.0000
  O   O1        1.0  0.9812333583831787  0.411575049161911  0.8736890554428101  1.0000
  O   O2        1.0  0.4258129894733429  0.8552730083465576  0.5411758422851562  1.0000
