data_image1087
_chemical_formula_structural       BaO2Ti
_chemical_formula_sum              "Ba1 O2 Ti1"
_cell_length_a       3.054473927107155
_cell_length_b       3.9258391492019227
_cell_length_c       6.4443511962890625
_cell_angle_alpha    107.70944055921886
_cell_angle_beta     89.96634333329436
_cell_angle_gamma    90.06068190146645

_space_group_name_H-M_alt    "P 1"
_space_group_IT_number       1

loop_
  _space_group_symop_operation_xyz
  'x, y, z'

loop_
  _atom_site_type_symbol
  _atom_site_label
  _atom_site_symmetry_multiplicity
  _atom_site_fract_x
  _atom_site_fract_y
  _atom_site_fract_z
  _atom_site_occupancy
  Ba  Ba1       1.0  0.9826492667198181  0.3477371633052826  0.7354984879493713  1.0000
  O   O1        1.0  0.4827147424221039  0.5260813236236572  0.09057524800300598  1.0000
  O   O2        1.0  0.4819667637348175  0.7406179308891296  0.5237323641777039  1.0000
  Ti  Ti1       1.0  0.9821105599403381  0.6241744160652161  0.29179078340530396  1.0000
