data_image827
_chemical_formula_structural       BaTiO2
_chemical_formula_sum              "Ba1 Ti1 O2"
_cell_length_a       3.3195560140469857
_cell_length_b       3.320336208976884
_cell_length_c       6.2808098793029785
_cell_angle_alpha    74.70116393383302
_cell_angle_beta     74.68748281285811
_cell_angle_gamma    60.08639698613972

_space_group_name_H-M_alt    "P 1"
_space_group_IT_number       1

loop_
  _space_group_symop_operation_xyz
  'x, y, z'

loop_
  _atom_site_type_symbol
  _atom_site_label
  _atom_site_symmetry_multiplicity
  _atom_site_fract_x
  _atom_site_fract_y
  _atom_site_fract_z
  _atom_site_occupancy
  Ba  Ba1       1.0  0.2729084491729736  0.7948200106620789  0.6985162496566772  1.0000
  Ti  Ti1       1.0  0.7734712362289429  0.29419153928756714  0.1980377584695816  1.0000
  O   O1        1.0  0.05048022046685222  0.5722746253013611  0.3658119738101959  1.0000
  O   O2        1.0  0.4952768087387085  0.017118122428655624  0.03118973597884177  1.0000
