data_image96
_chemical_formula_structural       BaOBa2OTiO2
_chemical_formula_sum              "Ba3 O4 Ti1"
_cell_length_a       5.879595876830228
_cell_length_b       5.889228068331735
_cell_length_c       5.89173698425293
_cell_angle_alpha    101.37719859509639
_cell_angle_beta     113.83949233450787
_cell_angle_gamma    113.77377824962296

_space_group_name_H-M_alt    "P 1"
_space_group_IT_number       1

loop_
  _space_group_symop_operation_xyz
  'x, y, z'

loop_
  _atom_site_type_symbol
  _atom_site_label
  _atom_site_symmetry_multiplicity
  _atom_site_fract_x
  _atom_site_fract_y
  _atom_site_fract_z
  _atom_site_occupancy
  Ba  Ba1       1.0  0.8752055764198303  0.3330760896205902  0.002970457077026442  1.0000
  O   O1        1.0  0.8059535622596741  0.298460990190506  0.46916329860687256  1.0000
  Ba  Ba2       1.0  0.37460601329803467  0.5822873115539551  0.7519060373306274  1.0000
  Ba  Ba3       1.0  0.8751878142356873  0.8325621485710144  0.5031816363334656  1.0000
  O   O2        1.0  0.37461215257644653  0.8680278062820435  0.4683765470981598  1.0000
  Ti  Ti1       1.0  0.3751382827758789  0.08202237635850906  0.2527918517589569  1.0000
  O   O3        1.0  0.37477824091911316  0.29768437147140503  0.037638951092958485  1.0000
  O   O4        1.0  0.9441027641296387  0.8674958944320679  0.03802662342786789  1.0000
