data_image874
_chemical_formula_structural       Ba2O2BaOTiO3
_chemical_formula_sum              "Ba3 O6 Ti1"
_cell_length_a       6.061810344126022
_cell_length_b       6.0634791494745075
_cell_length_c       6.5967936515808105
_cell_angle_alpha    89.91674248854417
_cell_angle_beta     90.02951575477924
_cell_angle_gamma    119.90920350143625

_space_group_name_H-M_alt    "P 1"
_space_group_IT_number       1

loop_
  _space_group_symop_operation_xyz
  'x, y, z'

loop_
  _atom_site_type_symbol
  _atom_site_label
  _atom_site_symmetry_multiplicity
  _atom_site_fract_x
  _atom_site_fract_y
  _atom_site_fract_z
  _atom_site_occupancy
  Ba  Ba1       1.0  0.4709303677082062  0.7103865742683411  0.2000609189271927  1.0000
  Ba  Ba2       1.0  0.13750942051410675  0.0443279892206192  0.9958156943321228  1.0000
  O   O1        1.0  0.9555675983428955  0.6803393363952637  0.2690693736076355  1.0000
  O   O2        1.0  0.6530215740203857  0.07475128024816513  0.9267575144767761  1.0000
  Ba  Ba3       1.0  0.8042638897895813  0.37746977806091303  0.5978272557258606  1.0000
  O   O3        1.0  0.1071123480796814  0.5280935168266296  0.9263097047805786  1.0000
  Ti  Ti1       1.0  0.8044320344924927  0.37745586037635803  0.09767910093069077  1.0000
  O   O4        1.0  0.6532777547836304  0.5290375351905823  0.9265852570533752  1.0000
  O   O5        1.0  0.9557455778121948  0.22614742815494537  0.269356906414032  1.0000
  O   O6        1.0  0.5017011165618896  0.22624275088310244  0.2692182958126068  1.0000
