data_image934
_chemical_formula_structural       TiBaO2
_chemical_formula_sum              "Ti1 Ba1 O2"
_cell_length_a       4.05766885066773
_cell_length_b       4.033647624290837
_cell_length_c       4.028569221496582
_cell_angle_alpha    89.96970378486095
_cell_angle_beta     90.06997096410433
_cell_angle_gamma    89.99850669308172

_space_group_name_H-M_alt    "P 1"
_space_group_IT_number       1

loop_
  _space_group_symop_operation_xyz
  'x, y, z'

loop_
  _atom_site_type_symbol
  _atom_site_label
  _atom_site_symmetry_multiplicity
  _atom_site_fract_x
  _atom_site_fract_y
  _atom_site_fract_z
  _atom_site_occupancy
  Ti  Ti1       1.0  0.9037331342697144  0.603944182395935  0.34362247586250305  1.0000
  Ba  Ba1       1.0  0.40390875935554504  0.10299886018037796  0.843015730381012  1.0000
  O   O1        1.0  0.9039795994758606  0.6031626462936401  0.8429364562034607  1.0000
  O   O2        1.0  0.9041236639022827  0.10266748815774918  0.3432384729385376  1.0000
