data_image665
_chemical_formula_structural       BaTiO2
_chemical_formula_sum              "Ba1 Ti1 O2"
_cell_length_a       4.077482700778931
_cell_length_b       4.0784606893443245
_cell_length_c       6.714850425720215
_cell_angle_alpha    72.2578893432788
_cell_angle_beta     72.27603692631222
_cell_angle_gamma    60.03230939733761

_space_group_name_H-M_alt    "P 1"
_space_group_IT_number       1

loop_
  _space_group_symop_operation_xyz
  'x, y, z'

loop_
  _atom_site_type_symbol
  _atom_site_label
  _atom_site_symmetry_multiplicity
  _atom_site_fract_x
  _atom_site_fract_y
  _atom_site_fract_z
  _atom_site_occupancy
  Ba  Ba1       1.0  0.363194078207016  0.06725640594959259  0.9224822521209717  1.0000
  Ti  Ti1       1.0  0.8634257316589355  0.5668151974678041  0.4227875769138336  1.0000
  O   O1        1.0  0.9568412899971007  0.6606094837188721  0.14213505387306213  1.0000
  O   O2        1.0  0.7697405815124511  0.4735030829906464  0.7028931975364685  1.0000
