data_image224
_chemical_formula_structural       OBaOBaTiOTiO
_chemical_formula_sum              "O4 Ba2 Ti2"
_cell_length_a       3.808241410051855
_cell_length_b       3.816402479968639
_cell_length_c       10.909210205078125
_cell_angle_alpha    90.04612677184863
_cell_angle_beta     90.00858122254411
_cell_angle_gamma    90.02765110898552

_space_group_name_H-M_alt    "P 1"
_space_group_IT_number       1

loop_
  _space_group_symop_operation_xyz
  'x, y, z'

loop_
  _atom_site_type_symbol
  _atom_site_label
  _atom_site_symmetry_multiplicity
  _atom_site_fract_x
  _atom_site_fract_y
  _atom_site_fract_z
  _atom_site_occupancy
  O   O1        1.0  0.43511444330215454  0.7141536474227905  0.929266631603241  1.0000
  Ba  Ba1       1.0  0.4367557168006897  0.715094566345215  0.47786444425582886  1.0000
  O   O2        1.0  0.936826229095459  0.21537917852401733  0.4070248305797577  1.0000
  Ba  Ba2       1.0  0.9363540410995483  0.21491333842277527  0.8571902513504028  1.0000
  Ti  Ti1       1.0  0.4363928735256195  0.7151371836662292  0.10279496759176254  1.0000
  O   O3        1.0  0.4369783401489258  0.21536958217620852  0.16830646991729736  1.0000
  Ti  Ti2       1.0  0.9359038472175598  0.2154092937707901  0.2322312593460083  1.0000
  O   O4        1.0  0.9348754286766052  0.7154673337936401  0.16987723112106323  1.0000
