data_image898
_chemical_formula_structural       OBaOTiOBaO2Ti2O2
_chemical_formula_sum              "O7 Ba2 Ti3"
_cell_length_a       3.8928790515605542
_cell_length_b       5.857026047125963
_cell_length_c       8.56732177734375
_cell_angle_alpha    88.90139385486258
_cell_angle_beta     76.98601965675331
_cell_angle_gamma    89.97411606206498

_space_group_name_H-M_alt    "P 1"
_space_group_IT_number       1

loop_
  _space_group_symop_operation_xyz
  'x, y, z'

loop_
  _atom_site_type_symbol
  _atom_site_label
  _atom_site_symmetry_multiplicity
  _atom_site_fract_x
  _atom_site_fract_y
  _atom_site_fract_z
  _atom_site_occupancy
  O   O1        1.0  0.10592157393693923  0.6743017435073853  0.2313070297241211  1.0000
  Ba  Ba1       1.0  0.2040758281946182  0.07540521770715712  0.03325952962040901  1.0000
  O   O2        1.0  0.5207884907722473  0.2945353388786316  0.4006369113922119  1.0000
  Ti  Ti1       1.0  0.5900237560272217  0.5607740879058838  0.26320773363113403  1.0000
  O   O3        1.0  0.9006640315055846  0.45084938406944275  0.6417288780212402  1.0000
  Ba  Ba2       1.0  0.9603983759880065  0.004845087882131337  0.5259853601455688  1.0000
  O   O4        1.0  0.6896404623985289  0.38712519407272333  0.06239856779575349  1.0000
  O   O5        1.0  0.29931867122650146  0.506396472454071  0.8432713747024536  1.0000
  Ti  Ti2       1.0  0.7860993742942809  0.571298360824585  0.8686963319778442  1.0000
  Ti  Ti3       1.0  0.4208389818668365  0.4845269322395324  0.6028284430503845  1.0000
  O   O6        1.0  0.48969742655754084  0.7402955889701843  0.46686679124832153  1.0000
  O   O7        1.0  0.7881908416748046  0.8833020925521851  0.8634091019630432  1.0000
