data_image933
_chemical_formula_structural       Ba3O5Ti
_chemical_formula_sum              "Ba3 O5 Ti1"
_cell_length_a       3.9733195404467847
_cell_length_b       6.182366605206257
_cell_length_c       7.3076982498168945
_cell_angle_alpha    115.00471536814955
_cell_angle_beta     105.75378559515372
_cell_angle_gamma    89.97613787583316

_space_group_name_H-M_alt    "P 1"
_space_group_IT_number       1

loop_
  _space_group_symop_operation_xyz
  'x, y, z'

loop_
  _atom_site_type_symbol
  _atom_site_label
  _atom_site_symmetry_multiplicity
  _atom_site_fract_x
  _atom_site_fract_y
  _atom_site_fract_z
  _atom_site_occupancy
  Ba  Ba1       1.0  0.6237721443176268  0.3599457740783691  0.2279868572950363  1.0000
  Ba  Ba2       1.0  0.835054337978363  0.07109764963388443  0.6510368585586548  1.0000
  Ba  Ba3       1.0  0.04673531651496887  0.7825846672058105  0.07350941002368927  1.0000
  O   O1        1.0  0.45104914903640747  0.4575093388557434  0.8821429014205933  1.0000
  O   O2        1.0  0.21944957971572873  0.22594703733921048  0.42002400755882263  1.0000
  O   O3        1.0  0.45107874274253845  0.9158347845077515  0.8821158409118652  1.0000
  O   O4        1.0  0.8350571393966675  0.5710046291351318  0.6509265899658203  1.0000
  O   O5        1.0  0.2192309945821762  0.6843878626823425  0.41937127709388733  1.0000
  Ti  Ti1       1.0  0.33515995740890503  0.5712968707084656  0.650907039642334  1.0000
