data_image85
_chemical_formula_structural       OBaOTi2BaO2BaO3
_chemical_formula_sum              "O7 Ba3 Ti2"
_cell_length_a       3.9791226718053125
_cell_length_b       4.058446759048559
_cell_length_c       11.446921348571777
_cell_angle_alpha    100.18728446305329
_cell_angle_beta     89.94004027134822
_cell_angle_gamma    89.96075623926562

_space_group_name_H-M_alt    "P 1"
_space_group_IT_number       1

loop_
  _space_group_symop_operation_xyz
  'x, y, z'

loop_
  _atom_site_type_symbol
  _atom_site_label
  _atom_site_symmetry_multiplicity
  _atom_site_fract_x
  _atom_site_fract_y
  _atom_site_fract_z
  _atom_site_occupancy
  O   O1        1.0  0.5576222538948059  0.17458292841911313  0.03380500897765159  1.0000
  Ba  Ba1       1.0  0.05697556957602501  0.8537678122520446  0.39130592346191406  1.0000
  O   O2        1.0  0.5571339726448059  0.3539089560508728  0.39179083704948425  1.0000
  Ti  Ti1       1.0  0.5570633411407471  0.44566634297370905  0.5761803984642029  1.0000
  Ti  Ti2       1.0  0.5572286248207092  0.26149070262908936  0.20668883621692657  1.0000
  Ba  Ba2       1.0  0.05711433291435242  0.029483661055564877  0.7432008385658264  1.0000
  O   O3        1.0  0.05765976011753082  0.2610268592834472  0.206624373793602  1.0000
  O   O4        1.0  0.057610321789979935  0.44658449292182917  0.5767162442207336  1.0000
  Ba  Ba3       1.0  0.0580296777188778  0.6785888671874999  0.0397227257490158  1.0000
  O   O5        1.0  0.5577313899993896  0.5333796739578247  0.7495647072792053  1.0000
  O   O6        1.0  0.5573903918266296  0.9466552734374999  0.5762077569961548  1.0000
  O   O7        1.0  0.5575863122940063  0.7611227631568908  0.20705898106098175  1.0000
