data_image833
_chemical_formula_structural       Ba2TiOBaO5BaTi2O5
_chemical_formula_sum              "Ba4 Ti3 O11"
_cell_length_a       3.9475961725118767
_cell_length_b       3.9471591460973108
_cell_length_c       18.01675796508789
_cell_angle_alpha    96.28599663696687
_cell_angle_beta     96.27467206879562
_cell_angle_gamma    90.02407206672271

_space_group_name_H-M_alt    "P 1"
_space_group_IT_number       1

loop_
  _space_group_symop_operation_xyz
  'x, y, z'

loop_
  _atom_site_type_symbol
  _atom_site_label
  _atom_site_symmetry_multiplicity
  _atom_site_fract_x
  _atom_site_fract_y
  _atom_site_fract_z
  _atom_site_occupancy
  Ba  Ba1       1.0  0.35140171647071844  0.6171495914459229  0.03312303125858307  1.0000
  Ba  Ba2       1.0  0.6458675265312196  0.9090686440467834  0.6204285025596619  1.0000
  Ti  Ti1       1.0  0.7849771976470948  0.04938933253288269  0.9005379676818848  1.0000
  O   O1        1.0  0.47197541594505316  0.23570416867733002  0.27198779582977295  1.0000
  Ba  Ba3       1.0  0.2269258946180344  0.49071404337883  0.7842962145805359  1.0000
  O   O2        1.0  0.83730947971344  0.10284333676099779  0.005062832031399015  1.0000
  O   O3        1.0  0.282320111989975  0.04746376350522041  0.896044909954071  1.0000
  O   O4        1.0  0.03453640639781952  0.29823863506317144  0.3993035554885864  1.0000
  O   O5        1.0  0.9725873470306398  0.735120177268982  0.27316752076148987  1.0000
  O   O6        1.0  0.9125879406929017  0.17645534873008728  0.15349701046943665  1.0000
  Ba  Ba4       1.0  0.5251906514167786  0.7882857918739319  0.37966200709342957  1.0000
  Ti  Ti2       1.0  0.9618278741836549  0.22536848485469818  0.2513143122196198  1.0000
  Ti  Ti3       1.0  0.08794434368610383  0.35148248076438904  0.5053272843360901  1.0000
  O   O7        1.0  0.5903761982917787  0.35396361351013184  0.5101549625396729  1.0000
  O   O8        1.0  0.14802204072475436  0.41136887669563293  0.6261804699897766  1.0000
  O   O9        1.0  0.72411447763443  0.9881178736686707  0.7774145603179932  1.0000
  O   O10       1.0  0.7824886441230775  0.5472248196601868  0.896291196346283  1.0000
  O   O11       1.0  0.09042494744062425  0.8541696071624757  0.5103148818016052  1.0000
