data_image807
_chemical_formula_structural       TiBaO4
_chemical_formula_sum              "Ti1 Ba1 O4"
_cell_length_a       3.8496479732863524
_cell_length_b       4.711273600527848
_cell_length_c       4.944406509399414
_cell_angle_alpha    92.57182828665104
_cell_angle_beta     95.29186236261725
_cell_angle_gamma    84.78847969718514

_space_group_name_H-M_alt    "P 1"
_space_group_IT_number       1

loop_
  _space_group_symop_operation_xyz
  'x, y, z'

loop_
  _atom_site_type_symbol
  _atom_site_label
  _atom_site_symmetry_multiplicity
  _atom_site_fract_x
  _atom_site_fract_y
  _atom_site_fract_z
  _atom_site_occupancy
  Ti  Ti1       1.0  0.8224950432777406  0.4658590853214264  0.25257202982902527  1.0000
  Ba  Ba1       1.0  0.40170699357986456  0.9870010018348695  0.7434985041618347  1.0000
  O   O1        1.0  0.8730820417404176  0.8686919212341307  0.3425595462322235  1.0000
  O   O2        1.0  0.9623201489448548  0.0686790943145752  0.1402214914560318  1.0000
  O   O3        1.0  0.7921388745307923  0.42681682109832764  0.6033395528793335  1.0000
  O   O4        1.0  0.37793338298797613  0.49370196461677557  0.09516099095344543  1.0000
