data_image375
_chemical_formula_structural       BaTiO2Ti2BaOTiO7
_chemical_formula_sum              "Ba2 Ti4 O10"
_cell_length_a       3.815004698644328
_cell_length_b       6.34443780401298
_cell_length_c       9.584972381591797
_cell_angle_alpha    84.16579841153455
_cell_angle_beta     89.95263514158985
_cell_angle_gamma    89.99382801331551

_space_group_name_H-M_alt    "P 1"
_space_group_IT_number       1

loop_
  _space_group_symop_operation_xyz
  'x, y, z'

loop_
  _atom_site_type_symbol
  _atom_site_label
  _atom_site_symmetry_multiplicity
  _atom_site_fract_x
  _atom_site_fract_y
  _atom_site_fract_z
  _atom_site_occupancy
  Ba  Ba1       1.0  0.4788978397846222  0.01963052526116371  0.0258230809122324  1.0000
  Ti  Ti1       1.0  0.9788457751274109  0.5824374556541444  0.18551903963088992  1.0000
  O   O1        1.0  0.9784367084503174  0.6317922472953796  0.700768232345581  1.0000
  O   O2        1.0  0.4791056513786316  0.6157573461532594  0.20342233777046206  1.0000
  Ti  Ti2       1.0  0.9792652130126953  0.9531695246696472  0.7156726717948914  1.0000
  Ti  Ti3       1.0  0.9802308082580566  0.15407313406467438  0.33825722336769104  1.0000
  Ba  Ba2       1.0  0.4789869487285614  0.6747158765792848  0.4906493723392487  1.0000
  O   O3        1.0  0.47859859466552734  0.4309003353118897  0.8989011645317079  1.0000
  Ti  Ti4       1.0  0.9789697527885437  0.4717256426811219  0.8676748871803284  1.0000
  O   O4        1.0  0.9786306023597717  0.6996984481811523  0.9924579858779908  1.0000
  O   O5        1.0  0.47894689440727234  0.9212695360183716  0.7418633699417114  1.0000
  O   O6        1.0  0.9795997738838196  0.022323878481984142  0.5263989567756653  1.0000
  O   O7        1.0  0.978847086429596  0.17256949841976169  0.8350481390953064  1.0000
  O   O8        1.0  0.9788931608200073  0.8877573013305664  0.27163270115852356  1.0000
  O   O9        1.0  0.9791592359542847  0.28675711154937744  0.14809644222259521  1.0000
  O   O10       1.0  0.9794604778289795  0.4293128848075867  0.3868076503276825  1.0000
