data_image547
_chemical_formula_structural       O2TiBa
_chemical_formula_sum              "O2 Ti1 Ba1"
_cell_length_a       3.3070772210835595
_cell_length_b       3.309984466277221
_cell_length_c       6.321207046508789
_cell_angle_alpha    74.8844375596364
_cell_angle_beta     74.88236236297467
_cell_angle_gamma    60.068957988676125

_space_group_name_H-M_alt    "P 1"
_space_group_IT_number       1

loop_
  _space_group_symop_operation_xyz
  'x, y, z'

loop_
  _atom_site_type_symbol
  _atom_site_label
  _atom_site_symmetry_multiplicity
  _atom_site_fract_x
  _atom_site_fract_y
  _atom_site_fract_z
  _atom_site_occupancy
  O   O1        1.0  0.815470278263092  0.8587275743484497  0.017444616183638573  1.0000
  O   O2        1.0  0.37071961164474493  0.41428342461585993  0.35147538781166077  1.0000
  Ti  Ti1       1.0  0.09375882148742677  0.1364322155714035  0.18407680094242096  1.0000
  Ba  Ba1       1.0  0.5930072665214539  0.6363174319267273  0.684746503829956  1.0000
