data_image749
_chemical_formula_structural       Ba2O3Ti2O3
_chemical_formula_sum              "Ba2 O6 Ti2"
_cell_length_a       4.248644314598074
_cell_length_b       5.643402385957992
_cell_length_c       5.639467716217041
_cell_angle_alpha    90.08686201717536
_cell_angle_beta     90.03763001687473
_cell_angle_gamma    90.06670613399511

_space_group_name_H-M_alt    "P 1"
_space_group_IT_number       1

loop_
  _space_group_symop_operation_xyz
  'x, y, z'

loop_
  _atom_site_type_symbol
  _atom_site_label
  _atom_site_symmetry_multiplicity
  _atom_site_fract_x
  _atom_site_fract_y
  _atom_site_fract_z
  _atom_site_occupancy
  Ba  Ba1       1.0  0.28397244215011597  0.9183328747749329  0.729277491569519  1.0000
  Ba  Ba2       1.0  0.28416794538497925  0.4175988733768463  0.227962926030159  1.0000
  O   O1        1.0  0.7471518516540527  0.668101966381073  0.9788628816604614  1.0000
  O   O2        1.0  0.7465389966964722  0.16794028878211972  0.9780721664428711  1.0000
  O   O3        1.0  0.22419951856136322  0.4180450141429901  0.728514552116394  1.0000
  Ti  Ti1       1.0  0.8024183511734009  0.4184738397598266  0.7287395000457764  1.0000
  Ti  Ti2       1.0  0.8032968044281006  0.9174422025680542  0.22921927273273468  1.0000
  O   O4        1.0  0.7456211447715759  0.1683837920427322  0.4778500199317932  1.0000
  O   O5        1.0  0.2237853705883026  0.9183856248855591  0.22883953154087067  1.0000
  O   O6        1.0  0.7473278045654297  0.6681870818138121  0.47887298464775085  1.0000
