data_image994
_chemical_formula_structural       Ba2Ti2BaOTiO
_chemical_formula_sum              "Ba3 Ti3 O2"
_cell_length_a       4.152770328115998
_cell_length_b       4.1494651317326285
_cell_length_c       12.984025001525879
_cell_angle_alpha    90.00868367494715
_cell_angle_beta     89.97874695384421
_cell_angle_gamma    120.19679534433988

_space_group_name_H-M_alt    "P 1"
_space_group_IT_number       1

loop_
  _space_group_symop_operation_xyz
  'x, y, z'

loop_
  _atom_site_type_symbol
  _atom_site_label
  _atom_site_symmetry_multiplicity
  _atom_site_fract_x
  _atom_site_fract_y
  _atom_site_fract_z
  _atom_site_occupancy
  Ba  Ba1       1.0  0.3470606207847596  0.5478757619857789  0.35310184955596924  1.0000
  Ba  Ba2       1.0  0.6794653534889222  0.2151153534650803  0.8276488184928894  1.0000
  Ti  Ti1       1.0  0.013163289986550862  0.8817245960235597  0.09070362150669098  1.0000
  Ti  Ti2       1.0  0.680043637752533  0.21442225575447083  0.14166423678398132  1.0000
  Ba  Ba3       1.0  0.01389371976256376  0.8814925551414491  0.5895774960517883  1.0000
  O   O1        1.0  0.6800269484519958  0.21571964025497437  0.4661480486392975  1.0000
  Ti  Ti3       1.0  0.346626877784729  0.5476343035697937  0.03706091642379761  1.0000
  O   O2        1.0  0.3457328975200653  0.5479568839073181  0.7133222222328186  1.0000
