data_image878
_chemical_formula_structural       BaTiBaTiO4
_chemical_formula_sum              "Ba2 Ti2 O4"
_cell_length_a       3.24186563747004
_cell_length_b       3.2404086254916726
_cell_length_c       12.474444389343262
_cell_angle_alpha    90.02037695927136
_cell_angle_beta     90.02209133605228
_cell_angle_gamma    120.03151895497894

_space_group_name_H-M_alt    "P 1"
_space_group_IT_number       1

loop_
  _space_group_symop_operation_xyz
  'x, y, z'

loop_
  _atom_site_type_symbol
  _atom_site_label
  _atom_site_symmetry_multiplicity
  _atom_site_fract_x
  _atom_site_fract_y
  _atom_site_fract_z
  _atom_site_occupancy
  Ba  Ba1       1.0  0.4003811776638031  0.14783123135566711  0.18003889918327332  1.0000
  Ti  Ti1       1.0  0.7333776950836182  0.8158187866210938  0.9421233534812928  1.0000
  Ba  Ba2       1.0  0.7325329780578613  0.8157789707183837  0.6809135675430298  1.0000
  Ti  Ti2       1.0  0.40031424164772034  0.14943481981754303  0.44129827618598944  1.0000
  O   O1        1.0  0.06595943123102188  0.4818833470344543  0.5187876224517822  1.0000
  O   O2        1.0  0.7338542938232422  0.8156436681747437  0.3575505316257477  1.0000
  O   O3        1.0  0.4004251956939696  0.1491156071424484  0.8566840887069703  1.0000
  O   O4        1.0  0.06660483032464977  0.4818530082702636  0.017357060685753822  1.0000
