data_image839
_chemical_formula_structural       TiO2Ba
_chemical_formula_sum              "Ti1 O2 Ba1"
_cell_length_a       3.303718681067195
_cell_length_b       3.305350555446679
_cell_length_c       6.2516069412231445
_cell_angle_alpha    74.75595588009072
_cell_angle_beta     74.73465773275998
_cell_angle_gamma    60.07751791979731

_space_group_name_H-M_alt    "P 1"
_space_group_IT_number       1

loop_
  _space_group_symop_operation_xyz
  'x, y, z'

loop_
  _atom_site_type_symbol
  _atom_site_label
  _atom_site_symmetry_multiplicity
  _atom_site_fract_x
  _atom_site_fract_y
  _atom_site_fract_z
  _atom_site_occupancy
  Ti  Ti1       1.0  0.2449917495250701  0.9859319329261781  0.3329172730445862  1.0000
  O   O1        1.0  0.5223113298416139  0.26188555359840393  0.5026443004608154  1.0000
  O   O2        1.0  0.9688254594802856  0.7091209292411804  0.16247984766960144  1.0000
  Ba  Ba1       1.0  0.7457698583602905  0.4855205118656159  0.8327289223670961  1.0000
