data_image1034
_chemical_formula_structural       Ba2OBaTiO2TiO3
_chemical_formula_sum              "Ba3 O6 Ti2"
_cell_length_a       4.034865548389721
_cell_length_b       4.034386002230667
_cell_length_c       11.27872371673584
_cell_angle_alpha    100.23436486881124
_cell_angle_beta     79.76004668648869
_cell_angle_gamma    89.98011965179329

_space_group_name_H-M_alt    "P 1"
_space_group_IT_number       1

loop_
  _space_group_symop_operation_xyz
  'x, y, z'

loop_
  _atom_site_type_symbol
  _atom_site_label
  _atom_site_symmetry_multiplicity
  _atom_site_fract_x
  _atom_site_fract_y
  _atom_site_fract_z
  _atom_site_occupancy
  Ba  Ba1       1.0  0.5010809302330017  0.7549643516540526  0.25230690836906433  1.0000
  Ba  Ba2       1.0  0.6834333539009094  0.5726636648178101  0.8875342607498169  1.0000
  O   O1        1.0  0.9095034003257751  0.8465836048126221  0.43580904603004456  1.0000
  Ba  Ba3       1.0  0.3188583254814148  0.9371988773345947  0.6166785955429077  1.0000
  Ti  Ti1       1.0  0.9016576409339905  0.35463517904281616  0.4515896737575531  1.0000
  O   O2        1.0  0.19057461619377136  0.06556785851716995  0.8736425042152405  1.0000
  O   O3        1.0  0.8116020560264587  0.4446319043636322  0.630969762802124  1.0000
  Ti  Ti2       1.0  0.1002923846244812  0.15592068433761597  0.05340924486517906  1.0000
  O   O4        1.0  0.09331640601158142  0.6634495258331299  0.06790608912706375  1.0000
  O   O5        1.0  0.5928477644920349  0.16320596635341644  0.06819885969161987  1.0000
  O   O6        1.0  0.4095286726951599  0.34706938266754145  0.43595534563064575  1.0000
