data_image362
_chemical_formula_structural       TiBaTiBaOBa2O7
_chemical_formula_sum              "Ti2 Ba4 O8"
_cell_length_a       6.223012817883406
_cell_length_b       6.230306544688098
_cell_length_c       7.537072658538818
_cell_angle_alpha    109.4282291160099
_cell_angle_beta     89.97009993484383
_cell_angle_gamma    89.89720131664807

_space_group_name_H-M_alt    "P 1"
_space_group_IT_number       1

loop_
  _space_group_symop_operation_xyz
  'x, y, z'

loop_
  _atom_site_type_symbol
  _atom_site_label
  _atom_site_symmetry_multiplicity
  _atom_site_fract_x
  _atom_site_fract_y
  _atom_site_fract_z
  _atom_site_occupancy
  Ti  Ti1       1.0  0.01863541081547737  0.17831918597221375  0.4119502902030945  1.0000
  Ba  Ba1       1.0  0.01748453825712204  0.7180601358413696  0.7745727300643921  1.0000
  Ti  Ti2       1.0  0.5183944702148438  0.6873610615730286  0.008290940895676583  1.0000
  Ba  Ba2       1.0  0.5181209444999695  0.24858008325099945  0.1816658228635788  1.0000
  O   O1        1.0  0.5180465579032898  0.8469756245613098  0.2633204162120819  1.0000
  Ba  Ba3       1.0  0.5175783038139343  0.14608152210712433  0.6456289887428284  1.0000
  Ba  Ba4       1.0  0.01809859648346901  0.6170403361320496  0.23819524049758914  1.0000
  O   O2        1.0  0.017836816608905792  0.9819805026054381  0.5510679483413696  1.0000
  O   O3        1.0  0.018299873918294907  0.01878456212580204  0.15707780420780182  1.0000
  O   O4        1.0  0.78818279504776  0.37338683009147644  0.467058390378952  1.0000
  O   O5        1.0  0.7481972575187683  0.49258798360824585  0.9533931612968446  1.0000
  O   O6        1.0  0.2884635031223297  0.49267059564590454  0.9537797570228578  1.0000
  O   O7        1.0  0.24835479259490967  0.3730184733867645  0.46702003479003906  1.0000
  O   O8        1.0  0.5182576179504395  0.8838387727737427  0.8697631359100342  1.0000
