data_image638
_chemical_formula_structural       Ba2TiBaTiO7
_chemical_formula_sum              "Ba3 Ti2 O7"
_cell_length_a       4.057938943693773
_cell_length_b       4.059564223833204
_cell_length_c       11.12165355682373
_cell_angle_alpha    100.57615367734506
_cell_angle_beta     100.56517812139285
_cell_angle_gamma    89.91842288751121

_space_group_name_H-M_alt    "P 1"
_space_group_IT_number       1

loop_
  _space_group_symop_operation_xyz
  'x, y, z'

loop_
  _atom_site_type_symbol
  _atom_site_label
  _atom_site_symmetry_multiplicity
  _atom_site_fract_x
  _atom_site_fract_y
  _atom_site_fract_z
  _atom_site_occupancy
  Ba  Ba1       1.0  0.6916232705116272  0.8013410568237305  0.9917464256286621  1.0000
  Ba  Ba2       1.0  0.06981324404478073  0.17851586639881134  0.7242770195007324  1.0000
  Ti  Ti1       1.0  0.49318686127662653  0.602767825126648  0.5481034517288208  1.0000
  Ba  Ba3       1.0  0.880188763141632  0.9902138710021972  0.3576957583427429  1.0000
  Ti  Ti2       1.0  0.26632490754127497  0.37739202380180353  0.16780723631381989  1.0000
  O   O1        1.0  0.47225978970527643  0.07361247390508652  0.5479885339736938  1.0000
  O   O2        1.0  0.3804185092449188  0.49000030755996704  0.3579290509223938  1.0000
  O   O3        1.0  0.2884456217288971  0.9060689210891724  0.16793780028820038  1.0000
  O   O4        1.0  0.20037506520748138  0.3103969395160675  0.9875690937042236  1.0000
  O   O5        1.0  0.7961064577102661  0.3979670703411102  0.16795101761817932  1.0000
  O   O6        1.0  0.5612462759017944  0.6692854166030884  0.7287787199020386  1.0000
  O   O7        1.0  0.9645884037017821  0.5806618928909302  0.5481804013252258  1.0000
