data_image932
_chemical_formula_structural       BaOTiBaOBaTiOTi2BaO9
_chemical_formula_sum              "Ba4 O12 Ti4"
_cell_length_a       5.811761725513865
_cell_length_b       5.812218887652232
_cell_length_c       10.089278221130371
_cell_angle_alpha    73.32325414452582
_cell_angle_beta     73.30214214306424
_cell_angle_gamma    60.035701031820196

_space_group_name_H-M_alt    "P 1"
_space_group_IT_number       1

loop_
  _space_group_symop_operation_xyz
  'x, y, z'

loop_
  _atom_site_type_symbol
  _atom_site_label
  _atom_site_symmetry_multiplicity
  _atom_site_fract_x
  _atom_site_fract_y
  _atom_site_fract_z
  _atom_site_occupancy
  Ba  Ba1       1.0  0.27734360098838806  0.09749000519514084  0.5770891308784485  1.0000
  O   O1        1.0  0.387289822101593  0.6600775718688965  0.7955112457275391  1.0000
  Ti  Ti1       1.0  0.9943046569824219  0.8141157031059265  0.4274693429470062  1.0000
  Ba  Ba2       1.0  0.864690899848938  0.6843928098678589  0.8160226941108704  1.0000
  O   O2        1.0  0.7886638641357422  0.1052343249320984  0.546843945980072  1.0000
  Ba  Ba3       1.0  0.7108253240585326  0.531059205532074  0.2773177921772004  1.0000
  Ti  Ti2       1.0  0.5877363085746766  0.40712824463844294  0.6467249989509583  1.0000
  O   O3        1.0  0.14787878096103668  0.4209363758563995  0.059654109179973616  1.0000
  Ti  Ti3       1.0  0.40018585324287415  0.2210259586572647  0.20922057330608368  1.0000
  Ti  Ti4       1.0  0.49447697401046753  0.3138522803783416  0.9277114868164062  1.0000
  Ba  Ba4       1.0  0.12350307404994965  0.943600833415985  0.0387989841401577  1.0000
  O   O4        1.0  0.3872408866882324  0.2070714235305786  0.7957882881164551  1.0000
  O   O5        1.0  0.19926813244819638  0.5230392217636108  0.3086528182029724  1.0000
  O   O6        1.0  0.19880737364292145  0.019295625388622284  0.30841064453125  1.0000
  O   O7        1.0  0.28496193885803217  0.6089380383491516  0.5468525886535645  1.0000
  O   O8        1.0  0.7027508020401001  0.019440967589616776  0.3085843622684478  1.0000
  O   O9        1.0  0.6012914776802063  0.4208502173423767  0.05953105539083481  1.0000
  O   O10       1.0  0.8399475812911987  0.2070962488651276  0.795586884021759  1.0000
  O   O11       1.0  0.6009575128555299  0.9677349925041198  0.05985381081700325  1.0000
  O   O12       1.0  0.7892628908157349  0.6091066598892212  0.546760082244873  1.0000
