data_image846
_chemical_formula_structural       Ba2O6BaTiBaTiO4
_chemical_formula_sum              "Ba4 O10 Ti2"
_cell_length_a       3.9656530703620088
_cell_length_b       3.9624514147718557
_cell_length_c       16.13844108581543
_cell_angle_alpha    89.90931124913344
_cell_angle_beta     89.9753796711014
_cell_angle_gamma    89.95745042663282

_space_group_name_H-M_alt    "P 1"
_space_group_IT_number       1

loop_
  _space_group_symop_operation_xyz
  'x, y, z'

loop_
  _atom_site_type_symbol
  _atom_site_label
  _atom_site_symmetry_multiplicity
  _atom_site_fract_x
  _atom_site_fract_y
  _atom_site_fract_z
  _atom_site_occupancy
  Ba  Ba1       1.0  0.45541524887084955  0.15256981551647186  0.040859635919332504  1.0000
  Ba  Ba2       1.0  0.45616072416305536  0.15246470272541046  0.6023625135421753  1.0000
  O   O1        1.0  0.955305516719818  0.15222232043743134  0.9231546521186829  1.0000
  O   O2        1.0  0.9565020203590392  0.6515284776687622  0.5950540900230408  1.0000
  O   O3        1.0  0.45579111576080317  0.6524013876914978  0.20939311385154724  1.0000
  O   O4        1.0  0.9566590785980223  0.6526567935943604  0.3414815068244934  1.0000
  O   O5        1.0  0.45557487010955805  0.6520916819572449  0.9239504933357239  1.0000
  O   O6        1.0  0.9550227522850036  0.652855634689331  0.08863793313503265  1.0000
  Ba  Ba3       1.0  0.45623734593391413  0.15295305848121643  0.336669385433197  1.0000
  Ti  Ti1       1.0  0.9558025002479552  0.6528828144073486  0.19755151867866516  1.0000
  Ba  Ba4       1.0  0.9561396837234496  0.6524538397789001  0.8107107281684875  1.0000
  Ti  Ti2       1.0  0.9565104842185973  0.6537175774574281  0.4757981300354004  1.0000
  O   O7        1.0  0.9562045335769652  0.15148337185382846  0.4700298309326172  1.0000
  O   O8        1.0  0.4556531608104705  0.15162764489650726  0.7552592158317566  1.0000
  O   O9        1.0  0.955790877342224  0.1523805558681488  0.2096857726573944  1.0000
  O   O10       1.0  0.456276386976242  0.6520290374755859  0.47007229924201965  1.0000
