data_image502
_chemical_formula_structural       O2TiBa
_chemical_formula_sum              "O2 Ti1 Ba1"
_cell_length_a       3.3001640580268603
_cell_length_b       3.298710964970553
_cell_length_c       6.311379909515381
_cell_angle_alpha    74.88668538235731
_cell_angle_beta     74.88394051827076
_cell_angle_gamma    60.084696985471226

_space_group_name_H-M_alt    "P 1"
_space_group_IT_number       1

loop_
  _space_group_symop_operation_xyz
  'x, y, z'

loop_
  _atom_site_type_symbol
  _atom_site_label
  _atom_site_symmetry_multiplicity
  _atom_site_fract_x
  _atom_site_fract_y
  _atom_site_fract_z
  _atom_site_occupancy
  O   O1        1.0  0.3396877348423004  0.6234664916992188  0.42440968751907354  1.0000
  O   O2        1.0  0.7845755219459534  0.06717170029878616  0.09153717011213304  1.0000
  Ti  Ti1       1.0  0.061969593167305  0.345785915851593  0.2577330470085144  1.0000
  Ba  Ba1       1.0  0.5620688199996948  0.8452712893486022  0.7580301761627198  1.0000
