data_image1000
_chemical_formula_structural       TiBaO2
_chemical_formula_sum              "Ti1 Ba1 O2"
_cell_length_a       3.310754758655848
_cell_length_b       3.3144127369616005
_cell_length_c       6.3260016441345215
_cell_angle_alpha    74.8353149942839
_cell_angle_beta     74.83618897384943
_cell_angle_gamma    60.01689293825313

_space_group_name_H-M_alt    "P 1"
_space_group_IT_number       1

loop_
  _space_group_symop_operation_xyz
  'x, y, z'

loop_
  _atom_site_type_symbol
  _atom_site_label
  _atom_site_symmetry_multiplicity
  _atom_site_fract_x
  _atom_site_fract_y
  _atom_site_fract_z
  _atom_site_occupancy
  Ti  Ti1       1.0  0.7482075095176698  0.8806648254394531  0.19902147352695465  1.0000
  Ba  Ba1       1.0  0.24833069741725927  0.38062277436256403  0.7002511620521545  1.0000
  O   O1        1.0  0.02544006705284119  0.15763390064239502  0.3681730628013611  1.0000
  O   O2        1.0  0.47111484408378607  0.6034767031669617  0.031589288264512995  1.0000
