data_image1041
_chemical_formula_structural       OBaTiOTiBaO6
_chemical_formula_sum              "O8 Ba2 Ti2"
_cell_length_a       4.086613814163076
_cell_length_b       5.8784444923705355
_cell_length_c       6.633645534515381
_cell_angle_alpha    90.09121967348153
_cell_angle_beta     96.42644529450305
_cell_angle_gamma    90.00424405314851

_space_group_name_H-M_alt    "P 1"
_space_group_IT_number       1

loop_
  _space_group_symop_operation_xyz
  'x, y, z'

loop_
  _atom_site_type_symbol
  _atom_site_label
  _atom_site_symmetry_multiplicity
  _atom_site_fract_x
  _atom_site_fract_y
  _atom_site_fract_z
  _atom_site_occupancy
  O   O1        1.0  0.7976598739624023  0.31006789207458496  0.6181092858314514  1.0000
  Ba  Ba1       1.0  0.23853254318237305  0.5608019828796387  0.3619920313358307  1.0000
  Ti  Ti1       1.0  0.7923768758773804  0.5617455244064331  0.8070675730705261  1.0000
  O   O2        1.0  0.8957906365394592  0.3246272802352905  0.03249160200357438  1.0000
  Ti  Ti2       1.0  0.8041782379150391  0.060236178338527686  0.43171966075897217  1.0000
  Ba  Ba2       1.0  0.3589019775390625  0.06158775836229324  0.8756065964698792  1.0000
  O   O3        1.0  0.8972896337509155  0.7969111800193787  0.031482405960559845  1.0000
  O   O4        1.0  0.7973064184188843  0.8105855584144592  0.6186999678611755  1.0000
  O   O5        1.0  0.35353153944015503  0.5598924160003662  0.8148811459541321  1.0000
  O   O6        1.0  0.6991480588912964  0.29692116379737854  0.20628251135349274  1.0000
  O   O7        1.0  0.24227535724639893  0.06005177274346352  0.42269372940063477  1.0000
  O   O8        1.0  0.6996521949768066  0.825042724609375  0.20492206513881683  1.0000
