data_image558
_chemical_formula_structural       BaOBaOTi2O5
_chemical_formula_sum              "Ba2 O7 Ti2"
_cell_length_a       3.9573954147249237
_cell_length_b       3.9585378291733937
_cell_length_c       11.16183090209961
_cell_angle_alpha    100.29114381953391
_cell_angle_beta     100.23110067111237
_cell_angle_gamma    90.10172421125536

_space_group_name_H-M_alt    "P 1"
_space_group_IT_number       1

loop_
  _space_group_symop_operation_xyz
  'x, y, z'

loop_
  _atom_site_type_symbol
  _atom_site_label
  _atom_site_symmetry_multiplicity
  _atom_site_fract_x
  _atom_site_fract_y
  _atom_site_fract_z
  _atom_site_occupancy
  Ba  Ba1       1.0  0.8370040059089662  0.8344601392745971  0.0032352209091186324  1.0000
  O   O1        1.0  0.4252645671367646  0.922750413417816  0.17812684178352356  1.0000
  Ba  Ba2       1.0  0.1984571218490601  0.19469566643238065  0.7269062399864197  1.0000
  O   O2        1.0  0.6109423637390137  0.10803191363811493  0.5520323514938354  1.0000
  Ti  Ti1       1.0  0.43230012059211737  0.4297698140144348  0.1921887993812561  1.0000
  Ti  Ti2       1.0  0.6042076349258423  0.6014513969421387  0.538347601890564  1.0000
  O   O3        1.0  0.11132992058992387  0.6071106195449829  0.5522316098213196  1.0000
  O   O4        1.0  0.9255483150482179  0.4228997826576233  0.1780945211648941  1.0000
  O   O5        1.0  0.7029192447662355  0.6992518901824951  0.7345454692840576  1.0000
  O   O6        1.0  0.3332518935203553  0.33102214336395264  0.9955372214317322  1.0000
  O   O7        1.0  0.5180774927139282  0.5149644613265991  0.3649671971797943  1.0000
