data_image519
_chemical_formula_structural       OBaO3BaTiBaO2TiO
_chemical_formula_sum              "O7 Ba3 Ti2"
_cell_length_a       3.9655180020134675
_cell_length_b       4.0468543535371975
_cell_length_c       11.447943687438965
_cell_angle_alpha    100.2212853559867
_cell_angle_beta     90.00265944799301
_cell_angle_gamma    90.01287058115184

_space_group_name_H-M_alt    "P 1"
_space_group_IT_number       1

loop_
  _space_group_symop_operation_xyz
  'x, y, z'

loop_
  _atom_site_type_symbol
  _atom_site_label
  _atom_site_symmetry_multiplicity
  _atom_site_fract_x
  _atom_site_fract_y
  _atom_site_fract_z
  _atom_site_occupancy
  O   O1        1.0  0.9869558811187744  0.047026641666889184  0.9107861518859863  1.0000
  Ba  Ba1       1.0  0.48714640736579895  0.5474724173545837  0.9111872911453246  1.0000
  O   O2        1.0  0.4865155518054962  0.13926602900028226  0.09432199597358704  1.0000
  O   O3        1.0  0.4873162806034088  0.9554728269577025  0.7279568910598755  1.0000
  O   O4        1.0  0.9872720837593079  0.8695222139358519  0.5551106929779053  1.0000
  Ba  Ba2       1.0  0.48697179555892944  0.3721672296524048  0.5619077682495117  1.0000
  Ti  Ti1       1.0  0.9866125583648682  0.1386700868606567  0.09449063241481781  1.0000
  Ba  Ba3       1.0  0.4871099591255188  0.7226357460021972  0.2609152793884277  1.0000
  O   O5        1.0  0.9864756464958191  0.22586792707443235  0.26725849509239197  1.0000
  O   O6        1.0  0.9870985150337219  0.45544385910034174  0.7277446389198303  1.0000
  Ti  Ti2       1.0  0.9876103401184082  0.9554308652877807  0.727057158946991  1.0000
  O   O7        1.0  0.9867333769798279  0.6392607688903809  0.09440265595912933  1.0000
