data_image600
_chemical_formula_structural       OTi2Ba2O6
_chemical_formula_sum              "O7 Ti2 Ba2"
_cell_length_a       3.9196667680290918
_cell_length_b       3.9819084023713005
_cell_length_c       10.769481658935547
_cell_angle_alpha    100.62499671126132
_cell_angle_beta     89.99876624029172
_cell_angle_gamma    89.96947155968576

_space_group_name_H-M_alt    "P 1"
_space_group_IT_number       1

loop_
  _space_group_symop_operation_xyz
  'x, y, z'

loop_
  _atom_site_type_symbol
  _atom_site_label
  _atom_site_symmetry_multiplicity
  _atom_site_fract_x
  _atom_site_fract_y
  _atom_site_fract_z
  _atom_site_occupancy
  O   O1        1.0  0.9370298981666565  0.08368128538131714  0.5086971521377563  1.0000
  Ti  Ti1       1.0  0.4357147812843323  0.8826177716255188  0.10697390884160995  1.0000
  Ti  Ti2       1.0  0.43665483593940735  0.09947584569454193  0.5403075814247131  1.0000
  Ba  Ba1       1.0  0.9360255002975464  0.2731744349002838  0.8872230648994446  1.0000
  Ba  Ba2       1.0  0.9364806413650513  0.4900602698326111  0.32052022218704224  1.0000
  O   O2        1.0  0.43679794669151306  0.1815578788518906  0.705132782459259  1.0000
  O   O3        1.0  0.4355206787586212  0.3887534737586975  0.11819566786289215  1.0000
  O   O4        1.0  0.4355109930038452  0.7949994802474976  0.9327893853187561  1.0000
  O   O5        1.0  0.9357364773750305  0.8886544108390808  0.1186051070690155  1.0000
  O   O6        1.0  0.43636128306388855  0.5819262862205505  0.5072216987609863  1.0000
  O   O7        1.0  0.4358213245868683  0.9847754240036011  0.3102629780769348  1.0000
