data_image773
_chemical_formula_structural       BaOBa2OBaOTiO2TiBaTiO7
_chemical_formula_sum              "Ba5 O12 Ti3"
_cell_length_a       6.404249957914774
_cell_length_b       6.017376797456134
_cell_length_c       10.929105758666992
_cell_angle_alpha    90.29895984900071
_cell_angle_beta     94.14176738007565
_cell_angle_gamma    117.15032207645487

_space_group_name_H-M_alt    "P 1"
_space_group_IT_number       1

loop_
  _space_group_symop_operation_xyz
  'x, y, z'

loop_
  _atom_site_type_symbol
  _atom_site_label
  _atom_site_symmetry_multiplicity
  _atom_site_fract_x
  _atom_site_fract_y
  _atom_site_fract_z
  _atom_site_occupancy
  Ba  Ba1       1.0  0.053843092173337936  0.09035821259021759  0.5869365930557251  1.0000
  O   O1        1.0  0.023856047540903057  0.461030900478363  0.07379110902547836  1.0000
  Ba  Ba2       1.0  0.8680416345596313  0.4971887469291687  0.29027557373046875  1.0000
  Ba  Ba3       1.0  0.15411238372325897  0.14477944374084473  0.9761348366737367  1.0000
  O   O2        1.0  0.28029879927635193  0.46082144975662226  0.4011141955852508  1.0000
  Ba  Ba4       1.0  0.7314645051956177  0.43263775110244745  0.7814673781394958  1.0000
  O   O3        1.0  0.4769938588142395  0.031607527285814285  0.9086510539054871  1.0000
  Ti  Ti1       1.0  0.514708936214447  0.8240864872932433  0.7976614236831665  1.0000
  O   O4        1.0  0.985910177230835  0.5517852902412415  0.5619866251945496  1.0000
  O   O5        1.0  0.4662419259548187  0.5740762948989868  0.9054336547851562  1.0000
  Ti  Ti2       1.0  0.29129350185394287  0.7036831378936768  0.537889838218689  1.0000
  Ba  Ba5       1.0  0.4841465950012207  0.8101157546043396  0.12109144777059556  1.0000
  Ti  Ti3       1.0  0.22270192205905914  0.17276477813720703  0.3093321621417999  1.0000
  O   O6        1.0  0.41120177507400507  0.980169653892517  0.6548622846603394  1.0000
  O   O7        1.0  0.2664611339569092  0.9328453540802001  0.4031486511230469  1.0000
  O   O8        1.0  0.4143636226654053  0.5543065667152405  0.6545132994651794  1.0000
  O   O9        1.0  0.9120686650276184  0.03488592058420181  0.267951637506485  1.0000
  O   O10       1.0  0.006980277597904205  0.6923352479934692  0.0719379410147667  1.0000
  O   O11       1.0  0.8313688635826111  0.9699267148971557  0.7810801863670349  1.0000
  O   O12       1.0  0.4232185184955597  0.2595374882221222  0.18886218965053558  1.0000
