data_image581
_chemical_formula_structural       O2BaTiO2
_chemical_formula_sum              "O4 Ba1 Ti1"
_cell_length_a       3.4158047105805163
_cell_length_b       3.8041374876694602
_cell_length_c       6.350377559661865
_cell_angle_alpha    90.27297101004538
_cell_angle_beta     89.98714125866503
_cell_angle_gamma    89.95694499522017

_space_group_name_H-M_alt    "P 1"
_space_group_IT_number       1

loop_
  _space_group_symop_operation_xyz
  'x, y, z'

loop_
  _atom_site_type_symbol
  _atom_site_label
  _atom_site_symmetry_multiplicity
  _atom_site_fract_x
  _atom_site_fract_y
  _atom_site_fract_z
  _atom_site_occupancy
  O   O1        1.0  0.19337810575962067  0.09724666923284529  0.8033297657966615  1.0000
  O   O2        1.0  0.6940867304801941  0.40235999226570124  0.5147513747215271  1.0000
  Ba  Ba1       1.0  0.19355949759483337  0.899098813533783  0.3038027882575989  1.0000
  Ti  Ti1       1.0  0.6945080161094666  0.3998450040817261  0.8041126132011415  1.0000
  O   O3        1.0  0.1937224268913269  0.6991952061653136  0.8051517009735109  1.0000
  O   O4        1.0  0.6939020752906799  0.39965611696243286  0.09284809231758119  1.0000
