data_image696
_chemical_formula_structural       BaTiO2
_chemical_formula_sum              "Ba1 Ti1 O2"
_cell_length_a       3.248302937394943
_cell_length_b       3.2440277544709297
_cell_length_c       7.076836109161377
_cell_angle_alpha    76.69358459980367
_cell_angle_beta     76.69223230563468
_cell_angle_gamma    59.97902765206922

_space_group_name_H-M_alt    "P 1"
_space_group_IT_number       1

loop_
  _space_group_symop_operation_xyz
  'x, y, z'

loop_
  _atom_site_type_symbol
  _atom_site_label
  _atom_site_symmetry_multiplicity
  _atom_site_fract_x
  _atom_site_fract_y
  _atom_site_fract_z
  _atom_site_occupancy
  Ba  Ba1       1.0  0.723925769329071  0.8883934617042542  0.46193677186965937  1.0000
  Ti  Ti1       1.0  0.22306326031684873  0.3890182077884674  0.9637170433998107  1.0000
  O   O1        1.0  0.6018866300582887  0.7671000361442565  0.8282945156097412  1.0000
  O   O2        1.0  0.8445160388946533  0.009792068973183632  0.09794417023658748  1.0000
