data_image1080
_chemical_formula_structural       OBa2O2TiBaTiO4
_chemical_formula_sum              "O7 Ba3 Ti2"
_cell_length_a       3.9969479739000637
_cell_length_b       4.00277534542751
_cell_length_c       13.166258811950684
_cell_angle_alpha    89.98414963391359
_cell_angle_beta     89.76511230355901
_cell_angle_gamma    89.83034743633648

_space_group_name_H-M_alt    "P 1"
_space_group_IT_number       1

loop_
  _space_group_symop_operation_xyz
  'x, y, z'

loop_
  _atom_site_type_symbol
  _atom_site_label
  _atom_site_symmetry_multiplicity
  _atom_site_fract_x
  _atom_site_fract_y
  _atom_site_fract_z
  _atom_site_occupancy
  O   O1        1.0  0.4429451525211335  0.2888636291027069  0.12310159206390381  1.0000
  Ba  Ba1       1.0  0.4437377750873566  0.7879855036735535  0.9725198745727539  1.0000
  Ba  Ba2       1.0  0.4410096406936646  0.7893574833869934  0.2822231948375702  1.0000
  O   O2        1.0  0.9413032531738282  0.288982093334198  0.28073450922966003  1.0000
  O   O3        1.0  0.9388612508773805  0.29057490825653076  0.5907703042030334  1.0000
  Ti  Ti1       1.0  0.9399023056030275  0.28992921113967896  0.4407283663749695  1.0000
  Ba  Ba3       1.0  0.439207136631012  0.7901290059089661  0.5886580944061279  1.0000
  Ti  Ti2       1.0  0.9428369402885438  0.2889057695865631  0.12074335664510727  1.0000
  O   O4        1.0  0.4397812485694886  0.28933632373809814  0.4384766221046448  1.0000
  O   O5        1.0  0.942593276500702  0.7882354259490967  0.12220080941915512  1.0000
  O   O6        1.0  0.9441679120063783  0.28851789236068726  0.9693312048912048  1.0000
  O   O7        1.0  0.9406820535659791  0.7893354296684265  0.4390527307987213  1.0000
