data_image560
_chemical_formula_structural       Ba2TiOTiO2BaO3
_chemical_formula_sum              "Ba3 Ti2 O6"
_cell_length_a       4.026492475269023
_cell_length_b       4.026372920989448
_cell_length_c       11.261396408081055
_cell_angle_alpha    100.26539471246998
_cell_angle_beta     100.26228010375728
_cell_angle_gamma    90.0431965050904

_space_group_name_H-M_alt    "P 1"
_space_group_IT_number       1

loop_
  _space_group_symop_operation_xyz
  'x, y, z'

loop_
  _atom_site_type_symbol
  _atom_site_label
  _atom_site_symmetry_multiplicity
  _atom_site_fract_x
  _atom_site_fract_y
  _atom_site_fract_z
  _atom_site_occupancy
  Ba  Ba1       1.0  0.31805169582366943  0.8059486746788025  0.5800570845603943  1.0000
  Ba  Ba2       1.0  0.13534332811832428  0.6234682202339173  0.2149689495563507  1.0000
  Ti  Ti1       1.0  0.734820544719696  0.22291682660579681  0.41426002979278564  1.0000
  O   O1        1.0  0.8249472379684448  0.3128677010536194  0.5932670831680298  1.0000
  Ti  Ti2       1.0  0.5364256501197815  0.024368423968553543  0.015728948637843132  1.0000
  O   O2        1.0  0.2267761379480362  0.21492999792099002  0.39835548400878906  1.0000
  O   O3        1.0  0.5442007780075073  0.5324700474739075  0.03146748244762421  1.0000
  Ba  Ba3       1.0  0.9532288908958435  0.4409115314483643  0.8500421047210693  1.0000
  O   O4        1.0  0.44619828462600714  0.9343186616897584  0.8366327881813049  1.0000
  O   O5        1.0  0.044256407767534256  0.03228921815752983  0.031338103115558624  1.0000
  O   O6        1.0  0.727613627910614  0.715214490890503  0.3988238573074341  1.0000
