data_image734
_chemical_formula_structural       Ba2O4Ti2O2
_chemical_formula_sum              "Ba2 O6 Ti2"
_cell_length_a       4.257749087932609
_cell_length_b       5.6527976218673075
_cell_length_c       5.6493353843688965
_cell_angle_alpha    90.04610628202913
_cell_angle_beta     90.00334929698008
_cell_angle_gamma    90.01603295812207

_space_group_name_H-M_alt    "P 1"
_space_group_IT_number       1

loop_
  _space_group_symop_operation_xyz
  'x, y, z'

loop_
  _atom_site_type_symbol
  _atom_site_label
  _atom_site_symmetry_multiplicity
  _atom_site_fract_x
  _atom_site_fract_y
  _atom_site_fract_z
  _atom_site_occupancy
  Ba  Ba1       1.0  0.8120005130767822  0.7628780007362367  0.6541818380355835  1.0000
  Ba  Ba2       1.0  0.81186842918396  0.2632039189338684  0.15374816954135895  1.0000
  O   O1        1.0  0.3507649600505829  0.012827612459659576  0.9041270017623901  1.0000
  O   O2        1.0  0.8735926747322083  0.7629576325416565  0.1536470353603363  1.0000
  O   O3        1.0  0.8734878897666931  0.26285311579704285  0.6536608338356018  1.0000
  O   O4        1.0  0.350798636674881  0.012752178125083448  0.4036795198917389  1.0000
  Ti  Ti1       1.0  0.29343777894973755  0.2630631923675537  0.6541810631752014  1.0000
  Ti  Ti2       1.0  0.2933914363384247  0.7628241777420045  0.15412765741348267  1.0000
  O   O5        1.0  0.35008567571640015  0.5126482844352722  0.40402451157569885  1.0000
  O   O6        1.0  0.3506107032299042  0.5130356550216675  0.9034228324890137  1.0000
