data_image541
_chemical_formula_structural       Ba2TiOTiO
_chemical_formula_sum              "Ba2 Ti2 O2"
_cell_length_a       3.567430019704436
_cell_length_b       3.9957675349405273
_cell_length_c       9.990153312683105
_cell_angle_alpha    90.06490978951858
_cell_angle_beta     90.0007743158238
_cell_angle_gamma    90.04914571677222

_space_group_name_H-M_alt    "P 1"
_space_group_IT_number       1

loop_
  _space_group_symop_operation_xyz
  'x, y, z'

loop_
  _atom_site_type_symbol
  _atom_site_label
  _atom_site_symmetry_multiplicity
  _atom_site_fract_x
  _atom_site_fract_y
  _atom_site_fract_z
  _atom_site_occupancy
  Ba  Ba1       1.0  0.875414550304413  0.7873932123184204  0.14746029675006866  1.0000
  Ba  Ba2       1.0  0.36592587828636175  0.28879013657569885  0.5532674789428711  1.0000
  Ti  Ti1       1.0  0.8684999346733094  0.7884266972541809  0.8083145618438721  1.0000
  O   O1        1.0  0.3696604669094086  0.7872630953788757  0.9256492853164672  1.0000
  Ti  Ti2       1.0  0.3702580332756043  0.287591814994812  0.8923515677452087  1.0000
  O   O2        1.0  0.8677867650985719  0.28791019320487976  0.7744258642196655  1.0000
