data_image798
_chemical_formula_structural       BaOTiO3
_chemical_formula_sum              "Ba1 O4 Ti1"
_cell_length_a       3.9265676933039786
_cell_length_b       4.216366459985245
_cell_length_c       5.123476982116699
_cell_angle_alpha    90.67650534991914
_cell_angle_beta     84.22868359370374
_cell_angle_gamma    90.52661688590904

_space_group_name_H-M_alt    "P 1"
_space_group_IT_number       1

loop_
  _space_group_symop_operation_xyz
  'x, y, z'

loop_
  _atom_site_type_symbol
  _atom_site_label
  _atom_site_symmetry_multiplicity
  _atom_site_fract_x
  _atom_site_fract_y
  _atom_site_fract_z
  _atom_site_occupancy
  Ba  Ba1       1.0  0.23362644016742704  0.7498754858970642  0.24710963666439056  1.0000
  O   O1        1.0  0.6786438226699828  0.2726912200450897  0.22716723382472992  1.0000
  Ti  Ti1       1.0  0.7835506796836852  0.2126719355583191  0.8307793140411377  1.0000
  O   O2        1.0  0.7765012383460997  0.7783939838409424  0.8510311841964722  1.0000
  O   O3        1.0  0.27515608072280884  0.26168984174728394  0.855424165725708  1.0000
  O   O4        1.0  0.8804078102111815  0.2522061765193939  0.4580620229244232  1.0000
