data_image549
_chemical_formula_structural       TiOBaO2TiBaO2Ba2O
_chemical_formula_sum              "Ti2 O6 Ba4"
_cell_length_a       4.0278362588436165
_cell_length_b       3.9465050725706723
_cell_length_c       15.444231986999512
_cell_angle_alpha    97.35714741762011
_cell_angle_beta     97.48047375687035
_cell_angle_gamma    90.10000323902943

_space_group_name_H-M_alt    "P 1"
_space_group_IT_number       1

loop_
  _space_group_symop_operation_xyz
  'x, y, z'

loop_
  _atom_site_type_symbol
  _atom_site_label
  _atom_site_symmetry_multiplicity
  _atom_site_fract_x
  _atom_site_fract_y
  _atom_site_fract_z
  _atom_site_occupancy
  Ti  Ti1       1.0  0.025329479947686195  0.8666170835494994  0.46079468727111816  1.0000
  O   O1        1.0  0.950914978981018  0.7909880280494689  0.30883434414863586  1.0000
  Ba  Ba1       1.0  0.8675891757011414  0.7057414054870605  0.13769041001796722  1.0000
  O   O2        1.0  0.27993103861808777  0.6163038015365601  0.9609599709510803  1.0000
  O   O3        1.0  0.36366206407546997  0.2028181254863739  0.13306529819965363  1.0000
  Ti  Ti2       1.0  0.3049425184726715  0.14237330853939056  0.010527212172746658  1.0000
  Ba  Ba2       1.0  0.5879305005073547  0.42899599671363825  0.5875720977783203  1.0000
  O   O4        1.0  0.08772972226142883  0.9290125370025634  0.5867165923118591  1.0000
  O   O5        1.0  0.02239157073199749  0.36309364438056946  0.4547889232635498  1.0000
  Ba  Ba3       1.0  0.724275529384613  0.06228604167699814  0.8523361682891847  1.0000
  Ba  Ba4       1.0  0.4584502875804901  0.2989301979541778  0.3256444036960602  1.0000
  O   O6        1.0  0.5224239826202393  0.863715887069702  0.4555613398551941  1.0000
