data_image405
_chemical_formula_structural       TiBa2O2
_chemical_formula_sum              "Ti1 Ba2 O2"
_cell_length_a       3.7707081529194078
_cell_length_b       3.7629618796749273
_cell_length_c       9.97175121307373
_cell_angle_alpha    100.85794028720478
_cell_angle_beta     100.72594036617137
_cell_angle_gamma    89.97768142739861

_space_group_name_H-M_alt    "P 1"
_space_group_IT_number       1

loop_
  _space_group_symop_operation_xyz
  'x, y, z'

loop_
  _atom_site_type_symbol
  _atom_site_label
  _atom_site_symmetry_multiplicity
  _atom_site_fract_x
  _atom_site_fract_y
  _atom_site_fract_z
  _atom_site_occupancy
  Ti  Ti1       1.0  0.3486883342266083  0.015560190193355082  0.697410523891449  1.0000
  Ba  Ba1       1.0  0.7189030647277832  0.38513532280921936  0.4364149272441864  1.0000
  Ba  Ba2       1.0  0.9779336452484131  0.6462801694869995  0.9584053754806519  1.0000
  O   O1        1.0  0.44407954812049866  0.11327885091304779  0.891610860824585  1.0000
  O   O2        1.0  0.2516944706439972  0.9183686375617981  0.5026288032531738  1.0000
