data_image140
_chemical_formula_structural       TiBaOBa2O3
_chemical_formula_sum              "Ti1 Ba3 O4"
_cell_length_a       5.522318377653058
_cell_length_b       5.530331891272495
_cell_length_c       6.663229942321777
_cell_angle_alpha    113.83913593753063
_cell_angle_beta     113.66735699296494
_cell_angle_gamma    90.3730480420098

_space_group_name_H-M_alt    "P 1"
_space_group_IT_number       1

loop_
  _space_group_symop_operation_xyz
  'x, y, z'

loop_
  _atom_site_type_symbol
  _atom_site_label
  _atom_site_symmetry_multiplicity
  _atom_site_fract_x
  _atom_site_fract_y
  _atom_site_fract_z
  _atom_site_occupancy
  Ti  Ti1       1.0  0.25431543588638306  0.3793350756168366  0.007095217704772949  1.0000
  Ba  Ba1       1.0  0.567969560623169  0.1920925080776215  0.5061033964157104  1.0000
  O   O1        1.0  0.30502793192863464  0.04639941081404687  0.008783898316323773  1.0000
  Ba  Ba2       1.0  0.06706421077251434  0.6924049854278564  0.5058854222297668  1.0000
  Ba  Ba3       1.0  0.8047733306884766  0.9306631088256836  0.0064309630542993546  1.0000
  O   O2        1.0  0.9212129712104797  0.43018123507499695  0.008822590112686223  1.0000
  O   O3        1.0  0.17165111005306244  0.2956289052963257  0.6685574650764465  1.0000
  O   O4        1.0  0.5038138628005981  0.6295996904373169  0.3383261561393738  1.0000
