data_image33
_chemical_formula_structural       OTiOBa2OTiOTiO2BaTiO2
_chemical_formula_sum              "O8 Ti4 Ba3"
_cell_length_a       3.771880775361317
_cell_length_b       6.096486067044998
_cell_length_c       11.629095077514648
_cell_angle_alpha    91.29051211962424
_cell_angle_beta     89.96122068833199
_cell_angle_gamma    89.9508114810698

_space_group_name_H-M_alt    "P 1"
_space_group_IT_number       1

loop_
  _space_group_symop_operation_xyz
  'x, y, z'

loop_
  _atom_site_type_symbol
  _atom_site_label
  _atom_site_symmetry_multiplicity
  _atom_site_fract_x
  _atom_site_fract_y
  _atom_site_fract_z
  _atom_site_occupancy
  O   O1        1.0  0.9425893425941467  0.22692978382110596  0.26354944705963135  1.0000
  Ti  Ti1       1.0  0.9430069327354431  0.43845939636230463  0.14647062122821808  1.0000
  O   O2        1.0  0.9432366490364075  0.20724670588970184  0.013098095543682575  1.0000
  Ba  Ba1       1.0  0.44181713461875916  0.9503989219665526  0.3359375596046448  1.0000
  Ba  Ba2       1.0  0.44344282150268555  0.9301474094390869  0.9116125702857971  1.0000
  O   O3        1.0  0.9428236484527588  0.22170421481132505  0.5133395195007324  1.0000
  Ti  Ti2       1.0  0.9430974721908569  0.43106287717819214  0.910747766494751  1.0000
  O   O4        1.0  0.943129301071167  0.6599639058113098  0.013910015113651752  1.0000
  Ti  Ti3       1.0  0.9431492686271667  0.9620162248611451  0.6047329902648926  1.0000
  O   O5        1.0  0.444034218788147  0.4276826977729797  0.8581893444061279  1.0000
  O   O6        1.0  0.9426313042640686  0.6663233041763306  0.2616606056690216  1.0000
  Ba  Ba3       1.0  0.4431390166282654  0.49021548032760615  0.6380696296691895  1.0000
  Ti  Ti4       1.0  0.9422594904899597  0.4548710584640503  0.3848040699958801  1.0000
  O   O7        1.0  0.9434616565704346  0.8284636735916138  0.7444663643836975  1.0000
  O   O8        1.0  0.942905068397522  0.7158864736557007  0.5022278428077698  1.0000
