data_image706
_chemical_formula_structural       TiBaTiO5BaTiO2
_chemical_formula_sum              "Ti3 Ba2 O7"
_cell_length_a       5.36544069280471
_cell_length_b       6.315133025276591
_cell_length_c       7.083704948425293
_cell_angle_alpha    118.78718288286814
_cell_angle_beta     108.86439858982142
_cell_angle_gamma    89.17797455475797

_space_group_name_H-M_alt    "P 1"
_space_group_IT_number       1

loop_
  _space_group_symop_operation_xyz
  'x, y, z'

loop_
  _atom_site_type_symbol
  _atom_site_label
  _atom_site_symmetry_multiplicity
  _atom_site_fract_x
  _atom_site_fract_y
  _atom_site_fract_z
  _atom_site_occupancy
  Ti  Ti1       1.0  0.24110932648181915  0.570233166217804  0.2072318792343139  1.0000
  Ba  Ba1       1.0  0.06411942094564438  0.9030624032020569  0.8299717307090759  1.0000
  Ti  Ti2       1.0  0.7607401609420776  0.4158059358596801  0.226398155093193  1.0000
  O   O1        1.0  0.5686280727386475  0.7782022953033447  0.9279003739356995  1.0000
  O   O2        1.0  0.12717728316783905  0.8741239905357361  0.22453287243843073  1.0000
  O   O3        1.0  0.7639774084091187  0.2298247516155243  0.3837687373161316  1.0000
  O   O4        1.0  0.38542211055755615  0.32080936431884766  0.008704171516001225  1.0000
  O   O5        1.0  0.8846668004989624  0.3456699848175048  0.9858756065368652  1.0000
  Ba  Ba2       1.0  0.44441670179367065  0.30143672227859497  0.6279147863388062  1.0000
  Ti  Ti3       1.0  0.7693648934364319  0.8939921855926514  0.2221681773662567  1.0000
  O   O6        1.0  0.16621464490890503  0.5628872513771057  0.4401635527610779  1.0000
  O   O7        1.0  0.6567757725715637  0.7506303191184996  0.37967067956924433  1.0000
