data_image791
_chemical_formula_structural       Ba3O3TiO2BaO2
_chemical_formula_sum              "Ba4 O7 Ti1"
_cell_length_a       3.9557964361527382
_cell_length_b       4.2039459710245035
_cell_length_c       14.23315143585205
_cell_angle_alpha    90.12712598629479
_cell_angle_beta     90.07910975282397
_cell_angle_gamma    90.32982551848511

_space_group_name_H-M_alt    "P 1"
_space_group_IT_number       1

loop_
  _space_group_symop_operation_xyz
  'x, y, z'

loop_
  _atom_site_type_symbol
  _atom_site_label
  _atom_site_symmetry_multiplicity
  _atom_site_fract_x
  _atom_site_fract_y
  _atom_site_fract_z
  _atom_site_occupancy
  Ba  Ba1       1.0  0.5379175543785095  0.9300764799118042  0.033191829919815063  1.0000
  Ba  Ba2       1.0  0.03768039122223854  0.4293749630451202  0.8204897046089172  1.0000
  Ba  Ba3       1.0  0.03806430473923683  0.42864808440208435  0.2558920085430145  1.0000
  O   O1        1.0  0.5388247966766357  0.9284539222717284  0.5147832632064819  1.0000
  O   O2        1.0  0.5382010340690613  0.4287455677986145  0.3777157962322235  1.0000
  O   O3        1.0  0.03679201379418373  0.9292770028114319  0.9228036999702454  1.0000
  Ti  Ti1       1.0  0.5387259125709534  0.9285330772399901  0.38807442784309387  1.0000
  O   O4        1.0  0.5369440317153931  0.4298489689826965  0.9443421959877014  1.0000
  O   O5        1.0  0.5383790731430054  0.42784723639488215  0.687605619430542  1.0000
  Ba  Ba4       1.0  0.03889548406004906  0.42822581529617304  0.5478411912918091  1.0000
  O   O6        1.0  0.03851909935474396  0.928013503551483  0.37799593806266785  1.0000
  O   O7        1.0  0.5374598503112793  0.9282782077789307  0.2298022955656052  1.0000
