data_image1031
_chemical_formula_structural       Ti2O2Ba2O5Ti
_chemical_formula_sum              "Ti3 O7 Ba2"
_cell_length_a       4.081956466319996
_cell_length_b       6.027766044617132
_cell_length_c       8.222442626953125
_cell_angle_alpha    80.8752795744309
_cell_angle_beta     75.73838371009813
_cell_angle_gamma    70.15123151203545

_space_group_name_H-M_alt    "P 1"
_space_group_IT_number       1

loop_
  _space_group_symop_operation_xyz
  'x, y, z'

loop_
  _atom_site_type_symbol
  _atom_site_label
  _atom_site_symmetry_multiplicity
  _atom_site_fract_x
  _atom_site_fract_y
  _atom_site_fract_z
  _atom_site_occupancy
  Ti  Ti1       1.0  0.7841423153877259  0.10747708380222319  0.10615137219429015  1.0000
  Ti  Ti2       1.0  0.5100347995758057  0.7881946563720703  0.9801188707351685  1.0000
  O   O1        1.0  0.34827721118927013  0.698063850402832  0.4753936529159546  1.0000
  O   O2        1.0  0.9890998005867004  0.7905940413475036  0.018397683277726173  1.0000
  Ba  Ba1       1.0  0.018481822684407234  0.47337400913238525  0.31107601523399353  1.0000
  Ba  Ba2       1.0  0.3077729046344757  0.4223690330982208  0.776054322719574  1.0000
  O   O3        1.0  0.030522704124450687  0.19678199291229248  0.6113760471343994  1.0000
  O   O4        1.0  0.6515226960182191  0.4481090307235718  0.04338711127638814  1.0000
  O   O5        1.0  0.30476102232933044  0.10549922287464143  0.06846089661121368  1.0000
  O   O6        1.0  0.6587384939193727  0.08864898234605789  0.34316420555114746  1.0000
  O   O7        1.0  0.6004080772399902  0.807128071784973  0.7445346713066101  1.0000
  Ti  Ti3       1.0  0.41509070992469793  0.9476966261863708  0.5432908535003662  1.0000
