data_image858
_chemical_formula_structural       Ba3TiO2BaO2TiO2
_chemical_formula_sum              "Ba4 Ti2 O6"
_cell_length_a       3.9197736163859576
_cell_length_b       5.851017118515051
_cell_length_c       12.18380355834961
_cell_angle_alpha    94.79184479609751
_cell_angle_beta     99.18704475904876
_cell_angle_gamma    90.0376641446015

_space_group_name_H-M_alt    "P 1"
_space_group_IT_number       1

loop_
  _space_group_symop_operation_xyz
  'x, y, z'

loop_
  _atom_site_type_symbol
  _atom_site_label
  _atom_site_symmetry_multiplicity
  _atom_site_fract_x
  _atom_site_fract_y
  _atom_site_fract_z
  _atom_site_occupancy
  Ba  Ba1       1.0  0.5576832294464111  0.4168112874031067  0.8785949349403382  1.0000
  Ba  Ba2       1.0  0.9154459238052368  0.8560568690299989  0.5945839881896973  1.0000
  Ba  Ba3       1.0  0.7965002059936523  0.3971391022205353  0.3588852882385254  1.0000
  Ti  Ti1       1.0  0.17860707640647888  0.38280859589576727  0.12109560519456865  1.0000
  O   O1        1.0  0.23655852675437927  0.13720571994781494  0.23718808591365817  1.0000
  O   O2        1.0  0.6693999171257019  0.33889287710189825  0.10338070243597032  1.0000
  Ba  Ba4       1.0  0.6753976345062256  0.8771476149559022  0.11387415975332262  1.0000
  O   O3        1.0  0.1179298609495163  0.5854141712188721  0.9972883462905885  1.0000
  O   O4        1.0  0.35451430082321167  0.6860182881355286  0.4756611585617066  1.0000
  Ti  Ti2       1.0  0.2941846549510956  0.890630304813385  0.35245147347450256  1.0000
  O   O5        1.0  0.23656949400901794  0.637408971786499  0.23641751706600192  1.0000
  O   O6        1.0  0.8035472631454468  0.935226082801819  0.3703683018684387  1.0000
