data_image958
_chemical_formula_structural       BaTiO3
_chemical_formula_sum              "Ba1 Ti1 O3"
_cell_length_a       4.082878795298003
_cell_length_b       4.0942112157064665
_cell_length_c       4.091195106506348
_cell_angle_alpha    89.95861838842677
_cell_angle_beta     90.03312892334118
_cell_angle_gamma    89.47077899387695

_space_group_name_H-M_alt    "P 1"
_space_group_IT_number       1

loop_
  _space_group_symop_operation_xyz
  'x, y, z'

loop_
  _atom_site_type_symbol
  _atom_site_label
  _atom_site_symmetry_multiplicity
  _atom_site_fract_x
  _atom_site_fract_y
  _atom_site_fract_z
  _atom_site_occupancy
  Ba  Ba1       1.0  0.3045654594898224  0.7643844485282898  0.11258886009454727  1.0000
  Ti  Ti1       1.0  0.8207936882972717  0.2812235355377197  0.595706045627594  1.0000
  O   O1        1.0  0.7894372344017029  0.7358126044273376  0.6295083165168762  1.0000
  O   O2        1.0  0.27619311213493347  0.2486012279987335  0.62941974401474  1.0000
  O   O3        1.0  0.7887800931930542  0.24795466661453244  0.14136555790901184  1.0000
