data_image228
_chemical_formula_structural       BaOTi2Ba2TiOTiO2BaO8
_chemical_formula_sum              "Ba4 O12 Ti4"
_cell_length_a       4.229378712628366
_cell_length_b       5.655813436340361
_cell_length_c       11.31428337097168
_cell_angle_alpha    90.01595099782055
_cell_angle_beta     89.99561752320358
_cell_angle_gamma    89.99188823964285

_space_group_name_H-M_alt    "P 1"
_space_group_IT_number       1

loop_
  _space_group_symop_operation_xyz
  'x, y, z'

loop_
  _atom_site_type_symbol
  _atom_site_label
  _atom_site_symmetry_multiplicity
  _atom_site_fract_x
  _atom_site_fract_y
  _atom_site_fract_z
  _atom_site_occupancy
  Ba  Ba1       1.0  0.5662797689437866  0.7124592661857605  0.7623099684715272  1.0000
  O   O1        1.0  0.030148252844810486  0.9632851481437682  0.8871372938156129  1.0000
  Ti  Ti1       1.0  0.08263075351715088  0.7128207683563231  0.5118058919906616  1.0000
  Ti  Ti2       1.0  0.08400262892246246  0.21334996819496155  0.2618805468082428  1.0000
  Ba  Ba2       1.0  0.5660971403121948  0.21220166981220245  0.011973001062870027  1.0000
  Ba  Ba3       1.0  0.5681450963020325  0.7133702039718627  0.26218047738075256  1.0000
  Ti  Ti3       1.0  0.08213864266872406  0.7128178477287292  0.01235727593302727  1.0000
  O   O2        1.0  0.5100308656692505  0.21317307651042935  0.2623712718486786  1.0000
  Ti  Ti4       1.0  0.08263455331325531  0.21265730261802673  0.7620903253555299  1.0000
  O   O3        1.0  0.03108404390513897  0.4630946516990661  0.6378934979438782  1.0000
  O   O4        1.0  0.03082171641290188  0.9637768864631652  0.6371654272079468  1.0000
  Ba  Ba4       1.0  0.5666424036026001  0.21329122781753537  0.5123572945594788  1.0000
  O   O5        1.0  0.5106093287467957  0.7138659358024597  0.5125857591629028  1.0000
  O   O6        1.0  0.03114301525056362  0.9634817838668822  0.38785809278488165  1.0000
  O   O7        1.0  0.5086326599121094  0.21305903792381287  0.7625022530555726  1.0000
  O   O8        1.0  0.5095457434654236  0.7125123143196105  0.012299899943172933  1.0000
  O   O9        1.0  0.029990967363119125  0.4629395604133606  0.8877630829811097  1.0000
  O   O10       1.0  0.0317036472260952  0.4638680219650268  0.3882629573345185  1.0000
  O   O11       1.0  0.03020429238677025  0.4624388217926025  0.13745994865894318  1.0000
  O   O12       1.0  0.03133887052536011  0.9624640941619873  0.13678430020809174  1.0000
