data_image989
_chemical_formula_structural       TiOBaO2
_chemical_formula_sum              "Ti1 O3 Ba1"
_cell_length_a       4.082661163864968
_cell_length_b       4.103797991463075
_cell_length_c       4.100753307342529
_cell_angle_alpha    89.56139508837352
_cell_angle_beta     89.95183601101138
_cell_angle_gamma    90.03993862291317

_space_group_name_H-M_alt    "P 1"
_space_group_IT_number       1

loop_
  _space_group_symop_operation_xyz
  'x, y, z'

loop_
  _atom_site_type_symbol
  _atom_site_label
  _atom_site_symmetry_multiplicity
  _atom_site_fract_x
  _atom_site_fract_y
  _atom_site_fract_z
  _atom_site_occupancy
  Ti  Ti1       1.0  0.6966010928153992  0.0472102016210556  0.7303228974342346  1.0000
  O   O1        1.0  0.7257198095321655  0.013770751655101778  0.18370378017425537  1.0000
  Ba  Ba1       1.0  0.21181730926036835  0.5303682684898376  0.21331696212291718  1.0000
  O   O2        1.0  0.23965631425380707  0.011931214481592178  0.6955087184906006  1.0000
  O   O3        1.0  0.7267982959747314  0.5006300210952759  0.6969817280769348  1.0000
