data_image218
_chemical_formula_structural       BaOTiO3
_chemical_formula_sum              "Ba1 O4 Ti1"
_cell_length_a       4.174128776122513
_cell_length_b       4.160919230790469
_cell_length_c       4.875705242156982
_cell_angle_alpha    95.9880976439128
_cell_angle_beta     95.92884585162221
_cell_angle_gamma    83.97794144839631

_space_group_name_H-M_alt    "P 1"
_space_group_IT_number       1

loop_
  _space_group_symop_operation_xyz
  'x, y, z'

loop_
  _atom_site_type_symbol
  _atom_site_label
  _atom_site_symmetry_multiplicity
  _atom_site_fract_x
  _atom_site_fract_y
  _atom_site_fract_z
  _atom_site_occupancy
  Ba  Ba1       1.0  0.15733081102371216  0.20736812055110931  0.16940189898014069  1.0000
  O   O1        1.0  0.6386744379997253  0.18216891586780548  0.6493173241615295  1.0000
  Ti  Ti1       1.0  0.6931314468383789  0.7432667016983032  0.6587077379226685  1.0000
  O   O2        1.0  0.7205579280853271  0.7808344960212706  0.056497950106859186  1.0000
  O   O3        1.0  0.12901772558689117  0.6893661022186278  0.6518614888191223  1.0000
  O   O4        1.0  0.5725945830345154  0.618542492389679  0.2630704641342163  1.0000
