data_image592
_chemical_formula_structural       BaO2BaOBaTiO4
_chemical_formula_sum              "Ba3 O7 Ti1"
_cell_length_a       3.8888035331520237
_cell_length_b       3.8863621513616553
_cell_length_c       11.994288444519043
_cell_angle_alpha    90.04627703203215
_cell_angle_beta     90.03597027938878
_cell_angle_gamma    90.05290231852031

_space_group_name_H-M_alt    "P 1"
_space_group_IT_number       1

loop_
  _space_group_symop_operation_xyz
  'x, y, z'

loop_
  _atom_site_type_symbol
  _atom_site_label
  _atom_site_symmetry_multiplicity
  _atom_site_fract_x
  _atom_site_fract_y
  _atom_site_fract_z
  _atom_site_occupancy
  Ba  Ba1       1.0  0.571419894695282  0.6159788966178894  0.8383219838142395  1.0000
  O   O1        1.0  0.07206615060567856  0.6162078380584717  0.0818634182214737  1.0000
  O   O2        1.0  0.5716649293899536  0.6162028908729553  0.4670226275920868  1.0000
  Ba  Ba2       1.0  0.07111696898937225  0.116199754178524  0.5298571586608887  1.0000
  O   O3        1.0  0.07152383774518967  0.11620451509952545  0.2692964971065521  1.0000
  Ba  Ba3       1.0  0.5719720721244812  0.6158020496368407  0.252488911151886  1.0000
  Ti  Ti1       1.0  0.07159814983606339  0.11615820229053496  0.0579366609454155  1.0000
  O   O4        1.0  0.07166485488414764  0.11572571843862534  0.913091242313385  1.0000
  O   O5        1.0  0.5717499852180481  0.1167144849896431  0.08223681151866913  1.0000
  O   O6        1.0  0.5714740753173828  0.11558666825294493  0.6883284449577332  1.0000
  O   O7        1.0  0.07177723944187164  0.6158610582351685  0.6878594756126404  1.0000
