data_image753
_chemical_formula_structural       OBa2TiO2TiBaO2TiO5
_chemical_formula_sum              "O10 Ba3 Ti3"
_cell_length_a       3.962243170219239
_cell_length_b       3.965841022173787
_cell_length_c       15.309591293334961
_cell_angle_alpha    97.49855307679971
_cell_angle_beta     97.49959829262325
_cell_angle_gamma    90.04745866456868

_space_group_name_H-M_alt    "P 1"
_space_group_IT_number       1

loop_
  _space_group_symop_operation_xyz
  'x, y, z'

loop_
  _atom_site_type_symbol
  _atom_site_label
  _atom_site_symmetry_multiplicity
  _atom_site_fract_x
  _atom_site_fract_y
  _atom_site_fract_z
  _atom_site_occupancy
  O   O1        1.0  0.9486103653907777  0.029577825218439102  0.6795843243598938  1.0000
  Ba  Ba1       1.0  0.17819567024707797  0.2582301199436188  0.1373383104801178  1.0000
  Ba  Ba2       1.0  0.578328013420105  0.6603158116340638  0.9402129650115968  1.0000
  Ti  Ti1       1.0  0.8906407356262208  0.9703088998794557  0.5605526566505432  1.0000
  O   O2        1.0  0.38126775622367864  0.9611995816230774  0.5429913997650146  1.0000
  O   O3        1.0  0.5162250995635986  0.0972522869706154  0.8158906102180482  1.0000
  Ti  Ti2       1.0  0.011213993653655054  0.09233445674180984  0.8056948184967042  1.0000
  Ba  Ba3       1.0  0.31858223676681524  0.39729517698287964  0.4158340692520142  1.0000
  O   O4        1.0  0.8813988566398622  0.46148014068603516  0.5430096983909607  1.0000
  O   O5        1.0  0.24445156753063205  0.8243817687034607  0.26764702796936035  1.0000
  Ti  Ti3       1.0  0.7466532588005067  0.825607419013977  0.2709154188632965  1.0000
  O   O6        1.0  0.08251589536666872  0.1634574681520462  0.9483034014701844  1.0000
  O   O7        1.0  0.7445101737976075  0.32462775707244873  0.26769185066223145  1.0000
  O   O8        1.0  0.6759077906608583  0.7570167183876038  0.132358118891716  1.0000
  O   O9        1.0  0.8110826015472413  0.8908722996711732  0.40139460563659674  1.0000
  O   O10       1.0  0.016105404123663902  0.5972850918769836  0.815556287765503  1.0000
