data_image480
_chemical_formula_structural       Ba3TiOBaO5
_chemical_formula_sum              "Ba4 Ti1 O6"
_cell_length_a       4.1260630153835365
_cell_length_b       4.1310380040923205
_cell_length_c       13.331318855285645
_cell_angle_alpha    98.85890806007323
_cell_angle_beta     98.83631312045084
_cell_angle_gamma    90.09738739982076

_space_group_name_H-M_alt    "P 1"
_space_group_IT_number       1

loop_
  _space_group_symop_operation_xyz
  'x, y, z'

loop_
  _atom_site_type_symbol
  _atom_site_label
  _atom_site_symmetry_multiplicity
  _atom_site_fract_x
  _atom_site_fract_y
  _atom_site_fract_z
  _atom_site_occupancy
  Ba  Ba1       1.0  0.05521247163414955  0.33856987953186035  0.7057740092277527  1.0000
  Ba  Ba2       1.0  0.21688900887966156  0.49970290064811707  0.028688006103038784  1.0000
  Ba  Ba3       1.0  0.44800302386283875  0.7307681441307068  0.48979708552360535  1.0000
  Ti  Ti1       1.0  0.6210231781005859  0.9040685296058655  0.8367226123809814  1.0000
  O   O1        1.0  0.7783581018447876  0.5613822340965271  0.1516958475112915  1.0000
  Ba  Ba4       1.0  0.8287771940231323  0.11245731264352798  0.25449275970458984  1.0000
  O   O2        1.0  0.27714890241622925  0.061201877892017365  0.15041960775852203  1.0000
  O   O3        1.0  0.9462128281593323  0.22954696416854858  0.4888499081134796  1.0000
  O   O4        1.0  0.5469833016395569  0.8292096853256226  0.6900222897529602  1.0000
  O   O5        1.0  0.12757046520709991  0.9102222323417664  0.8504909873008727  1.0000
  O   O6        1.0  0.6279911994934082  0.4101804792881012  0.8517147302627563  1.0000
