data_image852
_chemical_formula_structural       Ba3TiOBaOTiBaOBaO5
_chemical_formula_sum              "Ba6 Ti2 O8"
_cell_length_a       6.079139154681627
_cell_length_b       6.8274621251484655
_cell_length_c       8.657588005065918
_cell_angle_alpha    89.9802495964167
_cell_angle_beta     89.96924616090264
_cell_angle_gamma    90.06157665363783

_space_group_name_H-M_alt    "P 1"
_space_group_IT_number       1

loop_
  _space_group_symop_operation_xyz
  'x, y, z'

loop_
  _atom_site_type_symbol
  _atom_site_label
  _atom_site_symmetry_multiplicity
  _atom_site_fract_x
  _atom_site_fract_y
  _atom_site_fract_z
  _atom_site_occupancy
  Ba  Ba1       1.0  0.9260926246643065  0.7008908987045288  0.6273203492164612  1.0000
  Ba  Ba2       1.0  0.42646381258964533  0.7431596517562867  0.3579249978065491  1.0000
  Ba  Ba3       1.0  0.4264430403709411  0.7448899745941162  0.897783637046814  1.0000
  Ti  Ti1       1.0  0.9262451529502868  0.7465575337409973  0.12764687836170197  1.0000
  O   O1        1.0  0.42488560080528254  0.12115654349327089  0.43391183018684387  1.0000
  Ba  Ba4       1.0  0.9263643622398375  0.24387295544147494  0.39871856570243835  1.0000
  O   O2        1.0  0.9262723922729491  0.6210156679153442  0.9343249797821045  1.0000
  Ti  Ti2       1.0  0.42597067356109614  0.24535486102104187  0.6279320120811462  1.0000
  Ba  Ba5       1.0  0.9266257882118224  0.24478757381439212  0.8572458028793335  1.0000
  O   O3        1.0  0.1785583198070526  0.407166600227356  0.6278281807899475  1.0000
  Ba  Ba6       1.0  0.4261921048164367  0.2011823654174805  0.12807397544384003  1.0000
  O   O4        1.0  0.6739892959594727  0.40700930356979376  0.6284040212631226  1.0000
  O   O5        1.0  0.42497712373733515  0.12169618159532548  0.8214896321296692  1.0000
  O   O6        1.0  0.6779568791389465  0.9064053297042848  0.1285933554172516  1.0000
  O   O7        1.0  0.1733226627111435  0.9071595072746277  0.12784063816070557  1.0000
  O   O8        1.0  0.9256020188331603  0.6211565136909485  0.32086798548698425  1.0000
