data_image787
_chemical_formula_structural       TiBaTiBaO2TiO2BaO5Ti
_chemical_formula_sum              "Ti4 Ba3 O9"
_cell_length_a       3.992903280243033
_cell_length_b       3.992628102743762
_cell_length_c       15.222461700439453
_cell_angle_alpha    97.39422904189048
_cell_angle_beta     97.39334057536405
_cell_angle_gamma    89.9732212518682

_space_group_name_H-M_alt    "P 1"
_space_group_IT_number       1

loop_
  _space_group_symop_operation_xyz
  'x, y, z'

loop_
  _atom_site_type_symbol
  _atom_site_label
  _atom_site_symmetry_multiplicity
  _atom_site_fract_x
  _atom_site_fract_y
  _atom_site_fract_z
  _atom_site_occupancy
  Ti  Ti1       1.0  0.36878210306167597  0.2828044891357422  0.1808890849351883  1.0000
  Ba  Ba1       1.0  0.9992962479591369  0.9131350517272949  0.43998628854751587  1.0000
  Ti  Ti2       1.0  0.4361073970794677  0.3499017357826233  0.31399646401405334  1.0000
  Ba  Ba2       1.0  0.5971219539642333  0.5109535455703734  0.6392208933830261  1.0000
  O   O1        1.0  0.2999980747699737  0.7137533426284789  0.049924649298191064  1.0000
  O   O2        1.0  0.435364544391632  0.8506649136543274  0.3114144802093506  1.0000
  Ti  Ti3       1.0  0.30015900731086725  0.2143721729516983  0.04940004646778107  1.0000
  O   O3        1.0  0.16140106320381162  0.5760049819946289  0.7712158560752869  1.0000
  O   O4        1.0  0.9361503124237059  0.34885805845260615  0.31008392572402954  1.0000
  Ba  Ba3       1.0  0.7314314246177672  0.6456384658813477  0.9121954441070557  1.0000
  O   O5        1.0  0.5055497884750366  0.41952693462371826  0.4516436457633972  1.0000
  O   O6        1.0  0.22900193929672238  0.14321857690811154  0.9083042740821838  1.0000
  O   O7        1.0  0.7994055747985839  0.215051993727684  0.05033788084983826  1.0000
  O   O8        1.0  0.6614407300949096  0.07617835700511932  0.7715603113174438  1.0000
  O   O9        1.0  0.09457454830408095  0.008744692429900168  0.6328133940696716  1.0000
  Ti  Ti4       1.0  0.15909153223037717  0.07325501739978789  0.7671376466751099  1.0000
