data_image243
_chemical_formula_structural       BaOBaTiO2TiO2
_chemical_formula_sum              "Ba2 O5 Ti2"
_cell_length_a       4.082549021956384
_cell_length_b       5.96401024766259
_cell_length_c       6.439390182495117
_cell_angle_alpha    106.2409140147289
_cell_angle_beta     90.04672099791782
_cell_angle_gamma    109.98764381636664

_space_group_name_H-M_alt    "P 1"
_space_group_IT_number       1

loop_
  _space_group_symop_operation_xyz
  'x, y, z'

loop_
  _atom_site_type_symbol
  _atom_site_label
  _atom_site_symmetry_multiplicity
  _atom_site_fract_x
  _atom_site_fract_y
  _atom_site_fract_z
  _atom_site_occupancy
  Ba  Ba1       1.0  0.6526347398757935  0.7018941640853883  0.06629006564617157  1.0000
  O   O1        1.0  0.0576929971575737  0.5102337002754211  0.7472398281097412  1.0000
  Ba  Ba2       1.0  0.4618787467479706  0.3189148008823395  0.42707884311676025  1.0000
  Ti  Ti1       1.0  0.21723391115665436  0.8292637467384338  0.649968683719635  1.0000
  O   O2        1.0  0.9080999493598938  0.2106398940086365  0.1357428878545761  1.0000
  O   O3        1.0  0.7164467573165894  0.8288487792015077  0.6835216283798218  1.0000
  Ti  Ti2       1.0  0.8976163268089294  0.19068522751331332  0.843611478805542  1.0000
  O   O4        1.0  0.20682001113891607  0.8106318712234498  0.358248770236969  1.0000
  O   O5        1.0  0.39937084913253784  0.1919388622045517  0.8092623949050903  1.0000
