data_image518
_chemical_formula_structural       TiBa2OTiOTi2O6
_chemical_formula_sum              "Ti4 Ba2 O8"
_cell_length_a       4.037422658315205
_cell_length_b       6.66311312212573
_cell_length_c       8.08802318572998
_cell_angle_alpha    90.07512092046063
_cell_angle_beta     75.61843737829597
_cell_angle_gamma    72.36905603119104

_space_group_name_H-M_alt    "P 1"
_space_group_IT_number       1

loop_
  _space_group_symop_operation_xyz
  'x, y, z'

loop_
  _atom_site_type_symbol
  _atom_site_label
  _atom_site_symmetry_multiplicity
  _atom_site_fract_x
  _atom_site_fract_y
  _atom_site_fract_z
  _atom_site_occupancy
  Ti  Ti1       1.0  0.3937638103961944  0.8881790637969971  0.16682139039039615  1.0000
  Ba  Ba1       1.0  0.6633601188659668  0.31082862615585327  0.2024303376674652  1.0000
  Ba  Ba2       1.0  0.3027110397815705  0.4543091058731079  0.781170129776001  1.0000
  O   O1        1.0  0.0844473466277122  0.8943712115287782  0.7774997353553772  1.0000
  Ti  Ti2       1.0  0.5755226612091063  0.8762243986129761  0.8131832480430603  1.0000
  O   O2        1.0  0.8829761147499083  0.8711043000221252  0.20285485684871674  1.0000
  Ti  Ti3       1.0  0.8255684375762941  0.7573599815368652  0.4327243268489838  1.0000
  Ti  Ti4       1.0  0.14220300316810608  0.007523949258029461  0.5472655892372131  1.0000
  O   O3        1.0  0.3673120439052581  0.7164719700813293  0.38830190896987915  1.0000
  O   O4        1.0  0.8037176132202147  0.6046097874641418  0.6279979348182679  1.0000
  O   O5        1.0  0.6003244519233704  0.047455187886953354  0.5920993089675903  1.0000
  O   O6        1.0  0.6014631986618042  0.6529476642608643  0.9850989580154419  1.0000
  O   O7        1.0  0.36644792556762695  0.11080898344516754  0.996428370475769  1.0000
  O   O8        1.0  0.1639603227376938  0.15945306420326233  0.3521624803543091  1.0000
