data_image148
_chemical_formula_structural       O2BaTiO2
_chemical_formula_sum              "O4 Ba1 Ti1"
_cell_length_a       3.908613386622059
_cell_length_b       4.338487114510879
_cell_length_c       5.121790409088135
_cell_angle_alpha    95.53134251338119
_cell_angle_beta     90.03325869553134
_cell_angle_gamma    89.89111562385906

_space_group_name_H-M_alt    "P 1"
_space_group_IT_number       1

loop_
  _space_group_symop_operation_xyz
  'x, y, z'

loop_
  _atom_site_type_symbol
  _atom_site_label
  _atom_site_symmetry_multiplicity
  _atom_site_fract_x
  _atom_site_fract_y
  _atom_site_fract_z
  _atom_site_occupancy
  O   O1        1.0  0.08896989375352861  0.739399790763855  0.05009986832737923  1.0000
  O   O2        1.0  0.0892583653330803  0.9285863041877748  0.8271558284759521  1.0000
  Ba  Ba1       1.0  0.5890170335769654  0.37856823205947876  0.8280313014984131  1.0000
  Ti  Ti1       1.0  0.08908893167972566  0.8709065914154053  0.4197816252708435  1.0000
  O   O3        1.0  0.0895623564720154  0.28305014967918396  0.44537481665611267  1.0000
  O   O4        1.0  0.5893730521202089  0.7980483174324036  0.45246395468711853  1.0000
