data_image805
_chemical_formula_structural       TiO2Ba2TiO4
_chemical_formula_sum              "Ti2 O6 Ba2"
_cell_length_a       4.076772567553487
_cell_length_b       6.24678334357399
_cell_length_c       7.717482566833496
_cell_angle_alpha    112.86875864797084
_cell_angle_beta     89.97610367110836
_cell_angle_gamma    89.99683329787904

_space_group_name_H-M_alt    "P 1"
_space_group_IT_number       1

loop_
  _space_group_symop_operation_xyz
  'x, y, z'

loop_
  _atom_site_type_symbol
  _atom_site_label
  _atom_site_symmetry_multiplicity
  _atom_site_fract_x
  _atom_site_fract_y
  _atom_site_fract_z
  _atom_site_occupancy
  Ti  Ti1       1.0  0.3852788209915161  0.9865984916687011  0.12938092648983002  1.0000
  O   O1        1.0  0.3846950829029083  0.9461771249771118  0.8662799000740051  1.0000
  O   O2        1.0  0.8848918080329895  0.6884051561355591  0.6220208406448364  1.0000
  Ba  Ba1       1.0  0.3847820460796356  0.4436264932155609  0.701702892780304  1.0000
  Ba  Ba2       1.0  0.8845447301864624  0.5093370079994202  0.24743576347827914  1.0000
  Ti  Ti2       1.0  0.8845217823982239  0.9661363959312439  0.8193613886833191  1.0000
  O   O3        1.0  0.3840002417564392  0.7156504988670349  0.15567782521247864  1.0000
  O   O4        1.0  0.8839914202690125  0.006862299516797066  0.08255889266729355  1.0000
  O   O5        1.0  0.3844490349292755  0.26360711455345154  0.32735875248908997  1.0000
  O   O6        1.0  0.8843937516212463  0.23702092468738556  0.7927091717720032  1.0000
