data_image167
_chemical_formula_structural       O2TiBaO
_chemical_formula_sum              "O3 Ti1 Ba1"
_cell_length_a       4.05821470499573
_cell_length_b       4.089407223495226
_cell_length_c       4.087890625
_cell_angle_alpha    89.89450340836571
_cell_angle_beta     89.90344411567636
_cell_angle_gamma    89.90320506227995

_space_group_name_H-M_alt    "P 1"
_space_group_IT_number       1

loop_
  _space_group_symop_operation_xyz
  'x, y, z'

loop_
  _atom_site_type_symbol
  _atom_site_label
  _atom_site_symmetry_multiplicity
  _atom_site_fract_x
  _atom_site_fract_y
  _atom_site_fract_z
  _atom_site_occupancy
  O   O1        1.0  0.4343944787979126  0.1320016086101532  0.7643164396286011  1.0000
  O   O2        1.0  0.9234645962715149  0.6420238614082336  0.7622184157371521  1.0000
  Ti  Ti1       1.0  0.8995487093925476  0.0953981950879097  0.7283923625946045  1.0000
  Ba  Ba1       1.0  0.41197484731674194  0.6123268604278564  0.24474720656871796  1.0000
  O   O3        1.0  0.9235930442810059  0.12951801717281342  0.2751501798629761  1.0000
