data_image267
_chemical_formula_structural       Ba3O4TiO
_chemical_formula_sum              "Ba3 O5 Ti1"
_cell_length_a       6.173993116783497
_cell_length_b       6.172310385139646
_cell_length_c       6.306022644042969
_cell_angle_alpha    59.31206537947232
_cell_angle_beta     59.25187758178319
_cell_angle_gamma    61.49480146176407

_space_group_name_H-M_alt    "P 1"
_space_group_IT_number       1

loop_
  _space_group_symop_operation_xyz
  'x, y, z'

loop_
  _atom_site_type_symbol
  _atom_site_label
  _atom_site_symmetry_multiplicity
  _atom_site_fract_x
  _atom_site_fract_y
  _atom_site_fract_z
  _atom_site_occupancy
  Ba  Ba1       1.0  0.39147061109542847  0.7727309465408325  0.20102469623088837  1.0000
  Ba  Ba2       1.0  0.15490350127220154  0.5353562831878662  0.9382748007774353  1.0000
  Ba  Ba3       1.0  0.654035747051239  0.03576330840587616  0.43927785754203796  1.0000
  O   O1        1.0  0.0355219691991806  0.988480269908905  0.98626309633255  1.0000
  O   O2        1.0  0.6078853607177734  0.4180757403373718  0.5568886995315552  1.0000
  O   O3        1.0  0.6073176860809326  0.41583395004272466  0.9866834878921509  1.0000
  O   O4        1.0  0.08784820884466171  0.4685639441013336  0.5062448382377625  1.0000
  Ti  Ti1       1.0  0.8786808848381042  0.25896427035331726  0.7146314382553101  1.0000
  O   O5        1.0  0.037015702575445175  0.9884277582168579  0.5574246048927307  1.0000
