data_image897
_chemical_formula_structural       Ba3TiO4
_chemical_formula_sum              "Ba3 Ti1 O4"
_cell_length_a       4.077718863202736
_cell_length_b       4.078213281328434
_cell_length_c       9.611954689025879
_cell_angle_alpha    90.01034341070059
_cell_angle_beta     89.98561812438847
_cell_angle_gamma    89.92100453374803

_space_group_name_H-M_alt    "P 1"
_space_group_IT_number       1

loop_
  _space_group_symop_operation_xyz
  'x, y, z'

loop_
  _atom_site_type_symbol
  _atom_site_label
  _atom_site_symmetry_multiplicity
  _atom_site_fract_x
  _atom_site_fract_y
  _atom_site_fract_z
  _atom_site_occupancy
  Ba  Ba1       1.0  0.9914166927337646  0.022012706845998764  0.3636273145675659  1.0000
  Ba  Ba2       1.0  0.4918349087238312  0.5216297507286072  0.05615631863474846  1.0000
  Ba  Ba3       1.0  0.4909951090812683  0.5213394165039062  0.6714488863945007  1.0000
  Ti  Ti1       1.0  0.9913123846054077  0.021700844168663025  0.8637585639953613  1.0000
  O   O1        1.0  0.9912707805633545  0.02157439850270748  0.6470337510108948  1.0000
  O   O2        1.0  0.9916435480117798  0.021658753976225853  0.08065792918205261  1.0000
  O   O3        1.0  0.49155354499816895  0.021469336003065106  0.863762378692627  1.0000
  O   O4        1.0  0.991477906703949  0.5215054750442505  0.8638615608215332  1.0000
