data_image951
_chemical_formula_structural       Ba2TiO
_chemical_formula_sum              "Ba2 Ti1 O1"
_cell_length_a       3.5735502150084866
_cell_length_b       3.5754031586317705
_cell_length_c       10.124695777893066
_cell_angle_alpha    79.85078545022203
_cell_angle_beta     79.86663812009512
_cell_angle_gamma    59.999167937328345

_space_group_name_H-M_alt    "P 1"
_space_group_IT_number       1

loop_
  _space_group_symop_operation_xyz
  'x, y, z'

loop_
  _atom_site_type_symbol
  _atom_site_label
  _atom_site_symmetry_multiplicity
  _atom_site_fract_x
  _atom_site_fract_y
  _atom_site_fract_z
  _atom_site_occupancy
  Ba  Ba1       1.0  0.4084844291210174  0.7298052310943604  0.04616867005825043  1.0000
  Ba  Ba2       1.0  0.5999961495399474  0.921940565109253  0.4717749357223511  1.0000
  Ti  Ti1       1.0  0.1775714457035065  0.4996621012687683  0.7360709309577942  1.0000
  O   O1        1.0  0.8692348003387451  0.19068393111228943  0.6639207005500793  1.0000
