data_image1093
_chemical_formula_structural       BaOBaO3Ti2O
_chemical_formula_sum              "Ba2 O5 Ti2"
_cell_length_a       3.702059330426102
_cell_length_b       6.276331612117441
_cell_length_c       7.919955730438232
_cell_angle_alpha    70.48553643990874
_cell_angle_beta     76.83290742408796
_cell_angle_gamma    73.29213696597259

_space_group_name_H-M_alt    "P 1"
_space_group_IT_number       1

loop_
  _space_group_symop_operation_xyz
  'x, y, z'

loop_
  _atom_site_type_symbol
  _atom_site_label
  _atom_site_symmetry_multiplicity
  _atom_site_fract_x
  _atom_site_fract_y
  _atom_site_fract_z
  _atom_site_occupancy
  Ba  Ba1       1.0  0.5831552743911743  0.8048444390296936  0.18334105610847476  1.0000
  O   O1        1.0  0.9297541379928589  0.1639326512813568  0.12978222966194153  1.0000
  Ba  Ba2       1.0  0.7323275804519653  0.22320233285427094  0.4631283283233643  1.0000
  O   O2        1.0  0.16638526320457458  0.9684261083602905  0.8475173711776735  1.0000
  O   O3        1.0  0.1569325029850006  0.5138684511184692  0.3252938091754914  1.0000
  O   O4        1.0  0.48284807801246643  0.375377893447876  0.8119941353797914  1.0000
  Ti  Ti1       1.0  0.9943071007728577  0.26640623807907104  0.8980985283851625  1.0000
  Ti  Ti2       1.0  0.3455841541290283  0.7169286012649536  0.7432830333709718  1.0000
  O   O5        1.0  0.3850935101509095  0.8655853271484374  0.5158590078353882  1.0000
