data_image622
_chemical_formula_structural       TiBaOTiOBaTiO5
_chemical_formula_sum              "Ti3 Ba2 O7"
_cell_length_a       3.9699230206030025
_cell_length_b       4.269899609728157
_cell_length_c       10.279776573181152
_cell_angle_alpha    88.56803286432553
_cell_angle_beta     101.06690308655436
_cell_angle_gamma    89.99384849991799

_space_group_name_H-M_alt    "P 1"
_space_group_IT_number       1

loop_
  _space_group_symop_operation_xyz
  'x, y, z'

loop_
  _atom_site_type_symbol
  _atom_site_label
  _atom_site_symmetry_multiplicity
  _atom_site_fract_x
  _atom_site_fract_y
  _atom_site_fract_z
  _atom_site_occupancy
  Ti  Ti1       1.0  0.819930613040924  0.8044265508651733  0.5827651619911194  1.0000
  Ba  Ba1       1.0  0.02835294976830482  0.38108420372009283  0.9979398250579834  1.0000
  O   O1        1.0  0.12168543785810469  0.8877782225608826  0.18563434481620789  1.0000
  Ti  Ti2       1.0  0.6255871653556824  0.8422048091888429  0.1928662806749344  1.0000
  O   O2        1.0  0.7222292423248291  0.880876362323761  0.3869072198867798  1.0000
  Ba  Ba2       1.0  0.22442188858985898  0.3435976505279541  0.39034736156463623  1.0000
  Ti  Ti3       1.0  0.42741638422012324  0.9106577634811401  0.7953822016716003  1.0000
  O   O3        1.0  0.815901219844818  0.39764460921287537  0.5758783221244812  1.0000
  O   O4        1.0  0.3286203444004059  0.8781037330627443  0.5994746685028076  1.0000
  O   O5        1.0  0.6210010051727295  0.4089328944683075  0.18428243696689606  1.0000
  O   O6        1.0  0.521766185760498  0.8954608440399171  0.9855334758758545  1.0000
  O   O7        1.0  0.9207150936126708  0.8879082202911377  0.7845327258110046  1.0000
