data_image431
_chemical_formula_structural       Ba3TiO3TiO3
_chemical_formula_sum              "Ba3 Ti2 O6"
_cell_length_a       4.035420509995079
_cell_length_b       4.036375024291809
_cell_length_c       11.285072326660156
_cell_angle_alpha    100.2325137614314
_cell_angle_beta     100.22204979596246
_cell_angle_gamma    89.97090582497997

_space_group_name_H-M_alt    "P 1"
_space_group_IT_number       1

loop_
  _space_group_symop_operation_xyz
  'x, y, z'

loop_
  _atom_site_type_symbol
  _atom_site_label
  _atom_site_symmetry_multiplicity
  _atom_site_fract_x
  _atom_site_fract_y
  _atom_site_fract_z
  _atom_site_occupancy
  Ba  Ba1       1.0  0.7392833828926086  0.22863699495792386  0.7864382863044739  1.0000
  Ba  Ba2       1.0  0.10416045039892197  0.5933603048324585  0.5159583687782288  1.0000
  Ba  Ba3       1.0  0.9212594032287598  0.4109139144420623  0.15141530334949493  1.0000
  Ti  Ti1       1.0  0.3216855227947235  0.8110557794570923  0.9514822959899902  1.0000
  O   O1        1.0  0.01402913685888052  0.0032010218128561974  0.3362565338611603  1.0000
  O   O2        1.0  0.5141201615333557  0.5029513835906982  0.3361538350582123  1.0000
  O   O3        1.0  0.6109944581985474  0.10030328482389449  0.5295752286911011  1.0000
  Ti  Ti2       1.0  0.5211896300315857  0.010332288220524788  0.3509495258331299  1.0000
  O   O4        1.0  0.8294132947921753  0.818576455116272  0.9666745066642761  1.0000
  O   O5        1.0  0.23197747766971588  0.7212595343589783  0.77230304479599  1.0000
  O   O6        1.0  0.32939180731773376  0.3185674548149109  0.966746985912323  1.0000
