data_image824
_chemical_formula_structural       OTiBaOBaTiOBaOTiBaO2TiO2
_chemical_formula_sum              "O8 Ti4 Ba4"
_cell_length_a       4.165597904586352
_cell_length_b       7.9995985057247925
_cell_length_c       8.017215728759766
_cell_angle_alpha    90.0014641650097
_cell_angle_beta     89.93297784997935
_cell_angle_gamma    89.99208631593456

_space_group_name_H-M_alt    "P 1"
_space_group_IT_number       1

loop_
  _space_group_symop_operation_xyz
  'x, y, z'

loop_
  _atom_site_type_symbol
  _atom_site_label
  _atom_site_symmetry_multiplicity
  _atom_site_fract_x
  _atom_site_fract_y
  _atom_site_fract_z
  _atom_site_occupancy
  O   O1        1.0  0.14662790298461914  0.7169606685638428  0.7185951471328735  1.0000
  Ti  Ti1       1.0  0.14668212831020355  0.966869354248047  0.7187609672546387  1.0000
  Ba  Ba1       1.0  0.6473595499992371  0.21560689806938174  0.46953916549682617  1.0000
  O   O2        1.0  0.14717908203601837  0.9665035009384155  0.9696643948554993  1.0000
  Ba  Ba2       1.0  0.6480848789215088  0.7165293693542482  0.9688800573348999  1.0000
  Ti  Ti2       1.0  0.1459689736366272  0.4678648412227631  0.7209246754646301  1.0000
  O   O3        1.0  0.146084263920784  0.46663922071456915  0.46913301944732666  1.0000
  Ba  Ba3       1.0  0.6462786793708801  0.21877369284629825  0.9690419435501099  1.0000
  O   O4        1.0  0.1473648101091385  0.21767382323741913  0.7179055213928223  1.0000
  Ti  Ti3       1.0  0.14629311859607697  0.4679961502552033  0.21871645748615265  1.0000
  Ba  Ba4       1.0  0.6477656960487366  0.7181323170661927  0.4692268669605255  1.0000
  O   O5        1.0  0.14584676921367645  0.7167729139328004  0.2188442498445511  1.0000
  O   O6        1.0  0.1472494900226593  0.21703848242759707  0.2209244966506958  1.0000
  Ti  Ti4       1.0  0.14787065982818604  0.9677543044090272  0.21737773716449738  1.0000
  O   O7        1.0  0.14821042120456696  0.9664981961250305  0.4665846824645996  1.0000
  O   O8        1.0  0.1475904881954193  0.4659644365310669  0.9700141549110413  1.0000
