data_image624
_chemical_formula_structural       TiBaTiO3BaO3
_chemical_formula_sum              "Ti2 Ba2 O6"
_cell_length_a       5.627164166026512
_cell_length_b       5.627769582439705
_cell_length_c       5.90253210067749
_cell_angle_alpha    118.38580923276781
_cell_angle_beta     118.38774961967087
_cell_angle_gamma    89.9335530826163

_space_group_name_H-M_alt    "P 1"
_space_group_IT_number       1

loop_
  _space_group_symop_operation_xyz
  'x, y, z'

loop_
  _atom_site_type_symbol
  _atom_site_label
  _atom_site_symmetry_multiplicity
  _atom_site_fract_x
  _atom_site_fract_y
  _atom_site_fract_z
  _atom_site_occupancy
  Ti  Ti1       1.0  0.7726293206214905  0.2158413529396057  0.5343087911605835  1.0000
  Ba  Ba1       1.0  0.5136069059371948  0.4559175074100494  0.0173843652009964  1.0000
  Ti  Ti2       1.0  0.2740423381328583  0.7173866033554077  0.5375258922576904  1.0000
  O   O1        1.0  0.4926559329032898  0.4366121590137481  0.47697627544403076  1.0000
  O   O2        1.0  0.9791886806488037  0.42190027236938477  0.948045551776886  1.0000
  O   O3        1.0  0.49215027689933777  0.9354716539382935  0.4767519235610962  1.0000
  Ba  Ba2       1.0  0.012594265863299385  0.9560551643371583  0.015779990702867584  1.0000
  O   O4        1.0  0.4816282093524933  0.9245902895927429  0.9540138840675354  1.0000
  O   O5        1.0  0.9928185343742371  0.4354719817638397  0.4758551716804505  1.0000
  O   O6        1.0  0.993455171585083  0.935091495513916  0.47614207863807695  1.0000
