data_image830
_chemical_formula_structural       OTiBaTiBaOTiO2BaO2
_chemical_formula_sum              "O6 Ti3 Ba3"
_cell_length_a       3.9015045275368023
_cell_length_b       3.9210025232955945
_cell_length_c       14.221809387207031
_cell_angle_alpha    90.03201560481072
_cell_angle_beta     90.08023673214052
_cell_angle_gamma    90.12769289700118

_space_group_name_H-M_alt    "P 1"
_space_group_IT_number       1

loop_
  _space_group_symop_operation_xyz
  'x, y, z'

loop_
  _atom_site_type_symbol
  _atom_site_label
  _atom_site_symmetry_multiplicity
  _atom_site_fract_x
  _atom_site_fract_y
  _atom_site_fract_z
  _atom_site_occupancy
  O   O1        1.0  0.02086031623184681  0.858538329601288  0.1516529619693756  1.0000
  Ti  Ti1       1.0  0.020249605178833008  0.8578878045082092  0.9950261116027832  1.0000
  Ba  Ba1       1.0  0.01992386393249035  0.8567688465118408  0.5659599304199219  1.0000
  Ti  Ti2       1.0  0.019913824275135994  0.8574358820915223  0.30130693316459656  1.0000
  Ba  Ba2       1.0  0.5208263993263245  0.3579706549644471  0.12431266158819199  1.0000
  O   O2        1.0  0.5194769501686096  0.35692295432090765  0.5166982412338257  1.0000
  Ti  Ti3       1.0  0.520995557308197  0.3576414883136749  0.38415729999542236  1.0000
  O   O3        1.0  0.5199440717697144  0.8574523329734802  0.3372020721435547  1.0000
  O   O4        1.0  0.02067558839917183  0.3580614626407624  0.3262128531932831  1.0000
  Ba  Ba3       1.0  0.5200194716453552  0.3579560220241547  0.8448750376701355  1.0000
  O   O5        1.0  0.520330011844635  0.8579407930374147  0.9873313307762146  1.0000
  O   O6        1.0  0.02032775990664959  0.35792779922485357  0.9872950315475464  1.0000
