data_image311
_chemical_formula_structural       TiBa2O2TiBaO4
_chemical_formula_sum              "Ti2 Ba3 O6"
_cell_length_a       4.052074062008887
_cell_length_b       4.053003875817308
_cell_length_c       11.529061317443848
_cell_angle_alpha    100.1380928707106
_cell_angle_beta     100.13357136523219
_cell_angle_gamma    89.95287424258913

_space_group_name_H-M_alt    "P 1"
_space_group_IT_number       1

loop_
  _space_group_symop_operation_xyz
  'x, y, z'

loop_
  _atom_site_type_symbol
  _atom_site_label
  _atom_site_symmetry_multiplicity
  _atom_site_fract_x
  _atom_site_fract_y
  _atom_site_fract_z
  _atom_site_occupancy
  Ti  Ti1       1.0  0.496645301580429  0.07624220848083496  0.38325390219688416  1.0000
  Ba  Ba1       1.0  0.2699955701828003  0.8504527807235718  0.9296702742576598  1.0000
  Ba  Ba2       1.0  0.9143363833427429  0.49393099546432495  0.219401940703392  1.0000
  O   O1        1.0  0.9989593625068663  0.07976758480072021  0.38833802938461304  1.0000
  O   O2        1.0  0.49924096465110773  0.5790431499481201  0.3882482647895813  1.0000
  Ti  Ti2       1.0  0.6780272722244263  0.25872066617012024  0.7456838488578796  1.0000
  Ba  Ba3       1.0  0.0902094617486  0.6707471013069153  0.5706614255905151  1.0000
  O   O3        1.0  0.5922022461891174  0.1725025773048401  0.5743696689605713  1.0000
  O   O4        1.0  0.18786591291427612  0.26868122816085815  0.7658510208129883  1.0000
  O   O5        1.0  0.6880817413330078  0.7685677409172058  0.7657915949821472  1.0000
  O   O6        1.0  0.40532293915748596  0.9848729372024536  0.1998291313648224  1.0000
