data_image1070
_chemical_formula_structural       OTiBa2O2
_chemical_formula_sum              "O3 Ti1 Ba2"
_cell_length_a       3.9567680945004517
_cell_length_b       4.03169914099645
_cell_length_c       7.370140552520752
_cell_angle_alpha    105.86368272687616
_cell_angle_beta     105.59177281241362
_cell_angle_gamma    90.05246503984303

_space_group_name_H-M_alt    "P 1"
_space_group_IT_number       1

loop_
  _space_group_symop_operation_xyz
  'x, y, z'

loop_
  _atom_site_type_symbol
  _atom_site_label
  _atom_site_symmetry_multiplicity
  _atom_site_fract_x
  _atom_site_fract_y
  _atom_site_fract_z
  _atom_site_occupancy
  O   O1        1.0  0.5203472971916199  0.6360981464385986  0.09076789766550064  1.0000
  Ti  Ti1       1.0  0.6662880778312684  0.7808631062507628  0.38080960512161255  1.0000
  Ba  Ba1       1.0  0.02000012807548046  0.13507263362407684  0.08851158618927002  1.0000
  Ba  Ba2       1.0  0.31194257736206055  0.42790731787681574  0.6740564703941345  1.0000
  O   O2        1.0  0.6659262776374818  0.2818733751773834  0.3814951479434967  1.0000
  O   O3        1.0  0.8123981952667237  0.9273591637611388  0.673142671585083  1.0000
