data_image441
_chemical_formula_structural       BaOBaO3Ti
_chemical_formula_sum              "Ba2 O4 Ti1"
_cell_length_a       4.039817295629227
_cell_length_b       4.041698457516773
_cell_length_c       7.33763313293457
_cell_angle_alpha    105.94916824223166
_cell_angle_beta     105.94555684177918
_cell_angle_gamma    90.03100508254894

_space_group_name_H-M_alt    "P 1"
_space_group_IT_number       1

loop_
  _space_group_symop_operation_xyz
  'x, y, z'

loop_
  _atom_site_type_symbol
  _atom_site_label
  _atom_site_symmetry_multiplicity
  _atom_site_fract_x
  _atom_site_fract_y
  _atom_site_fract_z
  _atom_site_occupancy
  Ba  Ba1       1.0  0.269920289516449  0.5170848965644836  0.7465566396713257  1.0000
  O   O1        1.0  0.9130562543869019  0.6601206064224242  0.033353645354509354  1.0000
  Ba  Ba2       1.0  0.5566946864128113  0.8034831881523132  0.31989115476608276  1.0000
  O   O2        1.0  0.4133327901363373  0.16027000546455383  0.03351847454905511  1.0000
  O   O3        1.0  0.06114941462874413  0.30789709091186523  0.32880663871765137  1.0000
  O   O4        1.0  0.7654244303703308  0.012667393311858175  0.7378959059715271  1.0000
  Ti  Ti1       1.0  0.9134408235549927  0.160153329372406  0.033198483288288144  1.0000
