data_image751
_chemical_formula_structural       TiBaO3
_chemical_formula_sum              "Ti1 Ba1 O3"
_cell_length_a       4.0809777387202155
_cell_length_b       4.093032334870244
_cell_length_c       4.087579250335693
_cell_angle_alpha    89.41990090057944
_cell_angle_beta     90.10224360840934
_cell_angle_gamma    90.17836606994088

_space_group_name_H-M_alt    "P 1"
_space_group_IT_number       1

loop_
  _space_group_symop_operation_xyz
  'x, y, z'

loop_
  _atom_site_type_symbol
  _atom_site_label
  _atom_site_symmetry_multiplicity
  _atom_site_fract_x
  _atom_site_fract_y
  _atom_site_fract_z
  _atom_site_occupancy
  Ti  Ti1       1.0  0.48304763436317444  0.1728028655052185  0.15689831972122192  1.0000
  Ba  Ba1       1.0  0.9993981719017029  0.6561543941497803  0.6403767466545105  1.0000
  O   O1        1.0  0.027099421247839928  0.1385151743888855  0.12259220331907272  1.0000
  O   O2        1.0  0.5141321420669556  0.6272228956222534  0.12327494472265244  1.0000
  O   O3        1.0  0.5139970779418945  0.13972294330596924  0.6116529703140259  1.0000
