data_image295
_chemical_formula_structural       BaTiOTiO2BaTi
_chemical_formula_sum              "Ba2 Ti3 O3"
_cell_length_a       4.299539157815324
_cell_length_b       4.3270300466253415
_cell_length_c       8.549466133117676
_cell_angle_alpha    89.95566774427468
_cell_angle_beta     89.98976405091375
_cell_angle_gamma    89.95395336954483

_space_group_name_H-M_alt    "P 1"
_space_group_IT_number       1

loop_
  _space_group_symop_operation_xyz
  'x, y, z'

loop_
  _atom_site_type_symbol
  _atom_site_label
  _atom_site_symmetry_multiplicity
  _atom_site_fract_x
  _atom_site_fract_y
  _atom_site_fract_z
  _atom_site_occupancy
  Ba  Ba1       1.0  0.9894919395446777  0.8440488576889038  0.25139981508255005  1.0000
  Ti  Ti1       1.0  0.9901748895645142  0.34357237815856934  0.5951256155967712  1.0000
  O   O1        1.0  0.9889000058174133  0.8437746763229369  0.94389808177948  1.0000
  Ti  Ti2       1.0  0.48990315198898315  0.3428878784179687  0.479116827249527  1.0000
  O   O2        1.0  0.4898553490638733  0.34343293309211725  0.24312204122543335  1.0000
  O   O3        1.0  0.4896365702152252  0.8429917097091675  0.5928954482078552  1.0000
  Ba  Ba2       1.0  0.488677054643631  0.3440048396587372  0.9351378679275513  1.0000
  Ti  Ti3       1.0  0.9875139594078064  0.8424803614616394  0.7059023380279541  1.0000
