data_image271
_chemical_formula_structural       BaOTiBa3TiO2BaO2TiO2TiO2
_chemical_formula_sum              "Ba5 O9 Ti4"
_cell_length_a       4.0916729484085534
_cell_length_b       4.087672719810112
_cell_length_c       17.89487648010254
_cell_angle_alpha    89.99611612717219
_cell_angle_beta     90.00905250485718
_cell_angle_gamma    90.03392122217518

_space_group_name_H-M_alt    "P 1"
_space_group_IT_number       1

loop_
  _space_group_symop_operation_xyz
  'x, y, z'

loop_
  _atom_site_type_symbol
  _atom_site_label
  _atom_site_symmetry_multiplicity
  _atom_site_fract_x
  _atom_site_fract_y
  _atom_site_fract_z
  _atom_site_occupancy
  Ba  Ba1       1.0  0.003082417882978916  0.5517499446868896  0.10912731289863586  1.0000
  O   O1        1.0  0.5031198263168335  0.5515099167823792  0.9971546530723572  1.0000
  Ti  Ti1       1.0  0.5033774971961975  0.05176673829555512  0.11339453607797623  1.0000
  Ba  Ba2       1.0  0.0032840617932379246  0.5515995025634767  0.88486248254776  1.0000
  Ba  Ba3       1.0  0.0036181090399622917  0.5519821047782898  0.3308810591697693  1.0000
  Ba  Ba4       1.0  0.5027962923049927  0.05212317779660225  0.49850261211395264  1.0000
  Ti  Ti2       1.0  0.5036814212799072  0.051767729222774506  0.7705928683280945  1.0000
  O   O2        1.0  0.5035291910171509  0.5519673228263855  0.22801215946674347  1.0000
  O   O3        1.0  0.5032275319099426  0.05231945216655731  0.6506350040435791  1.0000
  Ba  Ba5       1.0  0.0035867299884557724  0.5523003339767456  0.6676666140556335  1.0000
  O   O4        1.0  0.5031309723854065  0.05154733732342721  0.35182639956474304  1.0000
  O   O5        1.0  0.5035627484321594  0.5518759489059449  0.7684648633003235  1.0000
  Ti  Ti3       1.0  0.5037123560905457  0.05196548253297806  0.22752130031585693  1.0000
  O   O6        1.0  0.0038741170428693295  0.0521264560520649  0.22958438098430634  1.0000
  O   O7        1.0  0.003522634506225586  0.05166475474834443  0.7674900889396667  1.0000
  Ti  Ti4       1.0  0.5032698512077332  0.05170882493257523  0.9954756498336792  1.0000
  O   O8        1.0  0.0032745669595897198  0.051763392984867096  0.9963763952255249  1.0000
  O   O9        1.0  0.5035983920097351  0.05144738033413888  0.8784059286117554  1.0000
