data_image374
_chemical_formula_structural       OTiBaTiBaO
_chemical_formula_sum              "O2 Ti2 Ba2"
_cell_length_a       3.9913001565443507
_cell_length_b       3.9987854973896533
_cell_length_c       10.11884593963623
_cell_angle_alpha    89.9983632590862
_cell_angle_beta     90.00911397683603
_cell_angle_gamma    89.96654140997195

_space_group_name_H-M_alt    "P 1"
_space_group_IT_number       1

loop_
  _space_group_symop_operation_xyz
  'x, y, z'

loop_
  _atom_site_type_symbol
  _atom_site_label
  _atom_site_symmetry_multiplicity
  _atom_site_fract_x
  _atom_site_fract_y
  _atom_site_fract_z
  _atom_site_occupancy
  O   O1        1.0  0.45903599262237554  0.5766891241073608  0.9369802474975586  1.0000
  Ti  Ti1       1.0  0.45875602960586553  0.07631050795316696  0.9700875878334045  1.0000
  Ba  Ba1       1.0  0.9588972330093385  0.07594075798988344  0.2794436812400818  1.0000
  Ti  Ti2       1.0  0.9591947793960572  0.5772002935409547  0.9730644822120667  1.0000
  Ba  Ba2       1.0  0.45804557204246527  0.5756683349609375  0.6650523543357849  1.0000
  O   O2        1.0  0.9594805240631105  0.07743216305971146  0.011951550841331482  1.0000
