data_image968
_chemical_formula_structural       OBaTiO3Ba2OTiO2
_chemical_formula_sum              "O7 Ba3 Ti2"
_cell_length_a       3.970079472697243
_cell_length_b       4.041829541737591
_cell_length_c       11.515769004821777
_cell_angle_alpha    100.11885929504415
_cell_angle_beta     89.99084322064999
_cell_angle_gamma    89.9849419372561

_space_group_name_H-M_alt    "P 1"
_space_group_IT_number       1

loop_
  _space_group_symop_operation_xyz
  'x, y, z'

loop_
  _atom_site_type_symbol
  _atom_site_label
  _atom_site_symmetry_multiplicity
  _atom_site_fract_x
  _atom_site_fract_y
  _atom_site_fract_z
  _atom_site_occupancy
  O   O1        1.0  0.7757722139358519  0.5517203807830809  0.9274109601974487  1.0000
  Ba  Ba1       1.0  0.27579545974731445  0.4033186733722687  0.6305723190307617  1.0000
  Ti  Ti1       1.0  0.7755800485610961  0.8202806711196898  0.4649103879928589  1.0000
  O   O2        1.0  0.2755037546157837  0.8205058574676513  0.4647555649280548  1.0000
  O   O3        1.0  0.2756872773170471  0.6375285983085631  0.09904475510120392  1.0000
  O   O4        1.0  0.7756212949752807  0.9061863422393799  0.6366694569587708  1.0000
  Ba  Ba2       1.0  0.2757423222064972  0.054223291575908654  0.932512640953064  1.0000
  Ba  Ba3       1.0  0.2756668031215668  0.22898067533969876  0.2814632058143616  1.0000
  O   O5        1.0  0.7757051587104796  0.32076665759086603  0.464621365070343  1.0000
  Ti  Ti2       1.0  0.775502860546112  0.6374825835227966  0.09898089617490768  1.0000
  O   O6        1.0  0.7757345438003539  0.7295078039169312  0.282290518283844  1.0000
  O   O7        1.0  0.7756542563438414  0.1372672468423843  0.09879524260759354  1.0000
