data_image559
_chemical_formula_structural       OBaOBaO2Ti2O2
_chemical_formula_sum              "O6 Ba2 Ti2"
_cell_length_a       4.0146465069509425
_cell_length_b       7.910528730640844
_cell_length_c       6.215572834014893
_cell_angle_alpha    67.88788645883584
_cell_angle_beta     90.08354937606562
_cell_angle_gamma    90.08243606006783

_space_group_name_H-M_alt    "P 1"
_space_group_IT_number       1

loop_
  _space_group_symop_operation_xyz
  'x, y, z'

loop_
  _atom_site_type_symbol
  _atom_site_label
  _atom_site_symmetry_multiplicity
  _atom_site_fract_x
  _atom_site_fract_y
  _atom_site_fract_z
  _atom_site_occupancy
  O   O1        1.0  0.28467652201652527  0.1100420281291008  0.3534001410007477  1.0000
  Ba  Ba1       1.0  0.7844182252883911  0.07089391350746155  0.09828799217939375  1.0000
  O   O2        1.0  0.28499776124954224  0.1145728752017021  0.8019961118698119  1.0000
  Ba  Ba2       1.0  0.28506606817245483  0.7809935212135315  0.739428162574768  1.0000
  O   O3        1.0  0.7846226692199707  0.7396735548973083  0.48434209823608393  1.0000
  O   O4        1.0  0.7848876714706421  0.7416048049926757  0.0327037945389749  1.0000
  Ti  Ti1       1.0  0.28551581501960754  0.26027071475982666  0.503539502620697  1.0000
  Ti  Ti2       1.0  0.7849347591400146  0.5921522974967957  0.32979947328567505  1.0000
  O   O5        1.0  0.2846556305885315  0.5320143103599548  0.35668954253196716  1.0000
  O   O6        1.0  0.7850746512413025  0.3206666707992553  0.4724180698394776  1.0000
