data_image632
_chemical_formula_structural       TiBaO2BaOTiO3
_chemical_formula_sum              "Ti2 Ba2 O6"
_cell_length_a       5.72167598561391
_cell_length_b       5.723493080968344
_cell_length_c       5.743107318878174
_cell_angle_alpha    90.99940941631668
_cell_angle_beta     119.30789984451533
_cell_angle_gamma    119.440722350548

_space_group_name_H-M_alt    "P 1"
_space_group_IT_number       1

loop_
  _space_group_symop_operation_xyz
  'x, y, z'

loop_
  _atom_site_type_symbol
  _atom_site_label
  _atom_site_symmetry_multiplicity
  _atom_site_fract_x
  _atom_site_fract_y
  _atom_site_fract_z
  _atom_site_occupancy
  Ti  Ti1       1.0  0.5360719561576843  0.7633536458015442  0.9054275155067443  1.0000
  Ba  Ba1       1.0  0.05376899614930153  0.019647421315312386  0.6808493733406067  1.0000
  O   O1        1.0  0.5701057314872742  0.02012280561029911  0.7072975039482117  1.0000
  O   O2        1.0  0.08145999163389207  0.532057523727417  0.706152081489563  1.0000
  Ba  Ba2       1.0  0.05309061706066132  0.519538938999176  0.18009111285209656  1.0000
  O   O3        1.0  0.5735117793083191  0.5293143391609192  0.7087962031364441  1.0000
  Ti  Ti2       1.0  0.5369285345077515  0.26377782225608826  0.4059720933437347  1.0000
  O   O4        1.0  0.5730376243591309  0.02873758599162102  0.20834834873676297  1.0000
  O   O5        1.0  0.5691834092140198  0.5190839767456055  0.20710109174251554  1.0000
  O   O6        1.0  0.08274494111537933  0.03244975581765175  0.205914169549942  1.0000
