data_image563
_chemical_formula_structural       OTiBaO2BaO2BaTiO2
_chemical_formula_sum              "O7 Ti2 Ba3"
_cell_length_a       4.069330105576509
_cell_length_b       4.071434213967846
_cell_length_c       11.091154098510742
_cell_angle_alpha    100.57312912903465
_cell_angle_beta     100.56340231547173
_cell_angle_gamma    89.83287442356695

_space_group_name_H-M_alt    "P 1"
_space_group_IT_number       1

loop_
  _space_group_symop_operation_xyz
  'x, y, z'

loop_
  _atom_site_type_symbol
  _atom_site_label
  _atom_site_symmetry_multiplicity
  _atom_site_fract_x
  _atom_site_fract_y
  _atom_site_fract_z
  _atom_site_occupancy
  O   O1        1.0  0.02722790651023388  0.7829815149307251  0.16986829042434692  1.0000
  Ti  Ti1       1.0  0.9622803926467896  0.7180502414703369  0.9893492460250854  1.0000
  Ba  Ba1       1.0  0.16849999129772186  0.9261965751647949  0.43329474329948425  1.0000
  O   O2        1.0  0.6549880504608154  0.4117027521133423  0.4267524480819702  1.0000
  O   O3        1.0  0.23951973021030426  0.5063180923461914  0.6094009876251221  1.0000
  Ba  Ba2       1.0  0.3544793128967285  0.11120051890611649  0.7992019057273865  1.0000
  O   O4        1.0  0.8411746621131897  0.5973982214927674  0.7980583906173706  1.0000
  O   O5        1.0  0.7495205402374268  0.9958105683326721  0.6094755530357361  1.0000
  Ba  Ba3       1.0  0.5356685519218445  0.29266005754470825  0.16560424864292145  1.0000
  Ti  Ti2       1.0  0.7703714370727539  0.5272229313850403  0.6086599230766296  1.0000
  O   O6        1.0  0.9374125599861145  0.18468494713306427  0.9878711700439453  1.0000
  O   O7        1.0  0.42805415391921997  0.6945962905883789  0.9880235195159912  1.0000
