data_image452
_chemical_formula_structural       OTiBaOTiO2Ba
_chemical_formula_sum              "O4 Ti2 Ba2"
_cell_length_a       4.142752076954461
_cell_length_b       5.837011159142851
_cell_length_c       6.300670623779297
_cell_angle_alpha    117.46765630827078
_cell_angle_beta     109.08124786893558
_cell_angle_gamma    90.0142572848504

_space_group_name_H-M_alt    "P 1"
_space_group_IT_number       1

loop_
  _space_group_symop_operation_xyz
  'x, y, z'

loop_
  _atom_site_type_symbol
  _atom_site_label
  _atom_site_symmetry_multiplicity
  _atom_site_fract_x
  _atom_site_fract_y
  _atom_site_fract_z
  _atom_site_occupancy
  O   O1        1.0  0.29157358407974243  0.046726394444704056  0.7191097140312195  1.0000
  Ti  Ti1       1.0  0.09130379557609558  0.8455703854560852  0.3203880190849304  1.0000
  Ba  Ba1       1.0  0.5508386492729187  0.30436941981315613  0.2375796586275101  1.0000
  O   O2        1.0  0.6064762473106384  0.8584120273590089  0.3501627743244171  1.0000
  Ti  Ti2       1.0  0.8072097301483154  0.060281690210103996  0.7490109801292419  1.0000
  O   O3        1.0  0.9486799836158752  0.9526492357254029  0.03405533730983734  1.0000
  O   O4        1.0  0.9486382603645325  0.45254540443420416  0.03385837376117706  1.0000
  Ba  Ba2       1.0  0.34737715125083923  0.6017417311668396  0.8317551612854004  1.0000
