data_image971
_chemical_formula_structural       BaO2TiOBaO2TiO
_chemical_formula_sum              "Ba2 O6 Ti2"
_cell_length_a       4.059066315319049
_cell_length_b       6.217194002420868
_cell_length_c       7.864439487457275
_cell_angle_alpha    112.91956925664101
_cell_angle_beta     90.00564424066431
_cell_angle_gamma    90.02948159965874

_space_group_name_H-M_alt    "P 1"
_space_group_IT_number       1

loop_
  _space_group_symop_operation_xyz
  'x, y, z'

loop_
  _atom_site_type_symbol
  _atom_site_label
  _atom_site_symmetry_multiplicity
  _atom_site_fract_x
  _atom_site_fract_y
  _atom_site_fract_z
  _atom_site_occupancy
  Ba  Ba1       1.0  0.3694831132888794  0.5741643309593201  0.0355679914355278  1.0000
  O   O1        1.0  0.8699916005134583  0.3821055293083191  0.42379653453826904  1.0000
  O   O2        1.0  0.36929652094841003  0.24752002954483035  0.20821897685527802  1.0000
  Ti  Ti1       1.0  0.3700147867202759  0.45678666234016424  0.4701900780200958  1.0000
  O   O3        1.0  0.8696590065956116  0.25120323896408087  0.9626122713088989  1.0000
  Ba  Ba2       1.0  0.86970055103302  0.056654904037714005  0.5957965850830078  1.0000
  O   O4        1.0  0.3702940344810486  0.3795932531356812  0.6690825819969177  1.0000
  O   O5        1.0  0.3699302673339844  0.7553150057792665  0.5014826655387878  1.0000
  Ti  Ti2       1.0  0.8700027465820312  0.17378601431846621  0.16162805259227753  1.0000
  O   O6        1.0  0.8693652153015137  0.8752079010009766  0.13059809803962708  1.0000
