data_image997
_chemical_formula_structural       Ba3TiOTiOTiOTiOTi2O3
_chemical_formula_sum              "Ba3 Ti6 O7"
_cell_length_a       4.084548984212398
_cell_length_b       5.857841162807833
_cell_length_c       10.493143081665039
_cell_angle_alpha    90.026462655081
_cell_angle_beta     89.99260540956838
_cell_angle_gamma    89.99485937252196

_space_group_name_H-M_alt    "P 1"
_space_group_IT_number       1

loop_
  _space_group_symop_operation_xyz
  'x, y, z'

loop_
  _atom_site_type_symbol
  _atom_site_label
  _atom_site_symmetry_multiplicity
  _atom_site_fract_x
  _atom_site_fract_y
  _atom_site_fract_z
  _atom_site_occupancy
  Ba  Ba1       1.0  0.6676335334777832  0.6415824294090271  0.7297037243843079  1.0000
  Ba  Ba2       1.0  0.6685447096824646  0.6412249207496643  0.1988237202167511  1.0000
  Ba  Ba3       1.0  0.6683357954025269  0.14117440581321716  0.46508130431175226  1.0000
  Ti  Ti1       1.0  0.16829709708690643  0.14150020480155948  0.7360496520996094  1.0000
  O   O1        1.0  0.16820310056209564  0.8919514417648317  0.3250112235546112  1.0000
  Ti  Ti2       1.0  0.1683940887451172  0.14134743809700012  0.19293276965618134  1.0000
  O   O2        1.0  0.16819298267364502  0.3910944163799286  0.6039626002311707  1.0000
  Ti  Ti3       1.0  0.667977511882782  0.1417590826749802  0.9642550349235534  1.0000
  O   O3        1.0  0.16812214255332947  0.3902447521686554  0.32511818408966064  1.0000
  Ti  Ti4       1.0  0.1681072860956192  0.6411474943161011  0.46505227684974665  1.0000
  O   O4        1.0  0.6680207848548889  0.1417475789785385  0.7538268566131592  1.0000
  Ti  Ti5       1.0  0.16845475137233734  0.4123661816120148  0.964518368244171  1.0000
  Ti  Ti6       1.0  0.16837544739246368  0.8705830574035646  0.9645012617111205  1.0000
  O   O5        1.0  0.668178915977478  0.1411726027727127  0.17523550987243652  1.0000
  O   O6        1.0  0.6684121489524841  0.6407305002212524  0.46474996209144587  1.0000
  O   O7        1.0  0.16814164817333221  0.891291379928589  0.6042848825454712  1.0000
