data_image605
_chemical_formula_structural       O2TiBa2O2
_chemical_formula_sum              "O4 Ti1 Ba2"
_cell_length_a       4.03267697394676
_cell_length_b       4.034938216051366
_cell_length_c       7.306811809539795
_cell_angle_alpha    106.0159207041761
_cell_angle_beta     106.02139307559575
_cell_angle_gamma    89.9896889728356

_space_group_name_H-M_alt    "P 1"
_space_group_IT_number       1

loop_
  _space_group_symop_operation_xyz
  'x, y, z'

loop_
  _atom_site_type_symbol
  _atom_site_label
  _atom_site_symmetry_multiplicity
  _atom_site_fract_x
  _atom_site_fract_y
  _atom_site_fract_z
  _atom_site_occupancy
  O   O1        1.0  0.7338280081748962  0.855181097984314  0.7602924704551696  1.0000
  O   O2        1.0  0.43774592876434326  0.5589017868041991  0.1683852672576904  1.0000
  Ti  Ti1       1.0  0.5859614014625549  0.7071233987808228  0.46452859044075007  1.0000
  Ba  Ba1       1.0  0.22933028638362885  0.3505423367023468  0.7513478398323058  1.0000
  Ba  Ba2       1.0  0.9422111511230469  0.06349144130945206  0.17731863260269162  1.0000
  O   O3        1.0  0.5856133103370667  0.2070327252149582  0.46428665518760676  1.0000
  O   O4        1.0  0.08565679937601088  0.7069090008735656  0.464443951845169  1.0000
