data_image533
_chemical_formula_structural       BaOBaTiOTiO4TiBaO5Ti
_chemical_formula_sum              "Ba3 O11 Ti4"
_cell_length_a       3.9921841911715448
_cell_length_b       4.252552380246631
_cell_length_c       14.305997848510742
_cell_angle_alpha    90.8440704981143
_cell_angle_beta     98.0875545548241
_cell_angle_gamma    89.93777264724838

_space_group_name_H-M_alt    "P 1"
_space_group_IT_number       1

loop_
  _space_group_symop_operation_xyz
  'x, y, z'

loop_
  _atom_site_type_symbol
  _atom_site_label
  _atom_site_symmetry_multiplicity
  _atom_site_fract_x
  _atom_site_fract_y
  _atom_site_fract_z
  _atom_site_occupancy
  Ba  Ba1       1.0  0.04320951923727989  0.622016966342926  0.40187916159629816  1.0000
  O   O1        1.0  0.8923128843307495  0.6441282629966736  0.097683385014534  1.0000
  Ba  Ba2       1.0  0.18755416572093964  0.6433452963829039  0.6857113838195801  1.0000
  Ti  Ti1       1.0  0.6136235594749451  0.11634213477373122  0.5446192026138306  1.0000
  O   O2        1.0  0.4788428246974945  0.6801823973655701  0.27270054817199707  1.0000
  Ti  Ti2       1.0  0.7753298878669739  0.13438405096530914  0.8256129622459412  1.0000
  O   O3        1.0  0.2479521483182907  0.17630136013031006  0.8268240094184875  1.0000
  O   O4        1.0  0.9668982625007629  0.16240830719470975  0.24884948134422302  1.0000
  O   O5        1.0  0.7557134628295898  0.6974388957023621  0.8255699872970581  1.0000
  O   O6        1.0  0.6823121905326843  0.1778935343027115  0.6858617663383484  1.0000
  Ti  Ti3       1.0  0.896635115146637  0.22936740517616272  0.10625597834587097  1.0000
  Ba  Ba3       1.0  0.33030033111572266  0.6789843440055847  0.9674252867698669  1.0000
  O   O7        1.0  0.1138848066329956  0.16935758292675018  0.5443719029426575  1.0000
  O   O8        1.0  0.8233262896537781  0.16954892873764038  0.9667670130729675  1.0000
  O   O9        1.0  0.613914430141449  0.6948457956314086  0.5447647571563721  1.0000
  O   O10       1.0  0.4038938581943512  0.16087163984775543  0.12187039107084274  1.0000
  O   O11       1.0  0.5439884066581726  0.164598748087883  0.402781754732132  1.0000
  Ti  Ti4       1.0  0.47505632042884827  0.09117838740348815  0.2647385001182556  1.0000
