data_image384
_chemical_formula_structural       BaTiBaO2TiO4BaO
_chemical_formula_sum              "Ba3 Ti2 O7"
_cell_length_a       4.0879194261819665
_cell_length_b       3.997990798596591
_cell_length_c       11.799365043640137
_cell_angle_alpha    99.73759202548014
_cell_angle_beta     91.1293742530094
_cell_angle_gamma    89.99907359444786

_space_group_name_H-M_alt    "P 1"
_space_group_IT_number       1

loop_
  _space_group_symop_operation_xyz
  'x, y, z'

loop_
  _atom_site_type_symbol
  _atom_site_label
  _atom_site_symmetry_multiplicity
  _atom_site_fract_x
  _atom_site_fract_y
  _atom_site_fract_z
  _atom_site_occupancy
  Ba  Ba1       1.0  0.9360365271568298  0.08318699151277542  0.9242345094680786  1.0000
  Ti  Ti1       1.0  0.3527356684207916  0.2582491636276245  0.27998974919319153  1.0000
  Ba  Ba2       1.0  0.4109649956226349  0.4613843262195587  0.6819998025894165  1.0000
  O   O1        1.0  0.41544076800346375  0.1727101355791092  0.1048738956451416  1.0000
  O   O2        1.0  0.4074234962463379  0.3419940173625946  0.44954797625541687  1.0000
  Ti  Ti2       1.0  0.469928115606308  0.6644212007522583  0.08701206743717194  1.0000
  O   O3        1.0  0.40424156188964844  0.7499678134918213  0.2621559500694275  1.0000
  O   O4        1.0  0.9140915274620056  0.2625417113304138  0.28826990723609924  1.0000
  O   O5        1.0  0.9085906147956848  0.6595760583877563  0.07707349210977554  1.0000
  O   O6        1.0  0.4142923951148987  0.580040693283081  0.9165747761726379  1.0000
  Ba  Ba3       1.0  0.8861742615699768  0.8387492299079895  0.4417012333869934  1.0000
  O   O7        1.0  0.913236141204834  0.9631795287132263  0.6838091015815735  1.0000
