data_image885
_chemical_formula_structural       O2Ba2OTi2O2
_chemical_formula_sum              "O5 Ba2 Ti2"
_cell_length_a       4.003202287741083
_cell_length_b       5.838480841249092
_cell_length_c       7.234425067901611
_cell_angle_alpha    77.86253826515059
_cell_angle_beta     73.99738600479617
_cell_angle_gamma    70.08376910818784

_space_group_name_H-M_alt    "P 1"
_space_group_IT_number       1

loop_
  _space_group_symop_operation_xyz
  'x, y, z'

loop_
  _atom_site_type_symbol
  _atom_site_label
  _atom_site_symmetry_multiplicity
  _atom_site_fract_x
  _atom_site_fract_y
  _atom_site_fract_z
  _atom_site_occupancy
  O   O1        1.0  0.9658340215682981  0.2572811543941498  0.3410269618034362  1.0000
  O   O2        1.0  0.9555400609970092  0.7199860215187073  0.8995918631553649  1.0000
  Ba  Ba1       1.0  0.6513292789459227  0.5810806751251221  0.652228593826294  1.0000
  Ba  Ba2       1.0  0.2545661628246307  0.02546880394220352  0.9990774989128112  1.0000
  O   O3        1.0  0.4221509099006652  0.5224143266677856  0.16532199084758759  1.0000
  Ti  Ti1       1.0  0.8906955122947692  0.5827968716621399  0.16579543054103854  1.0000
  Ti  Ti2       1.0  0.46986049413681025  0.2159847468137741  0.3748582303524017  1.0000
  O   O4        1.0  0.3255219161510467  0.24624106287956235  0.6349615454673767  1.0000
  O   O5        1.0  0.6784246563911437  0.8867329359054565  0.2862437069416046  1.0000
