data_image810
_chemical_formula_structural       BaTiO2
_chemical_formula_sum              "Ba1 Ti1 O2"
_cell_length_a       3.2000255206808914
_cell_length_b       3.200701015180019
_cell_length_c       6.549441814422607
_cell_angle_alpha    90.00588329756687
_cell_angle_beta     90.05345556672182
_cell_angle_gamma    120.06989277226714

_space_group_name_H-M_alt    "P 1"
_space_group_IT_number       1

loop_
  _space_group_symop_operation_xyz
  'x, y, z'

loop_
  _atom_site_type_symbol
  _atom_site_label
  _atom_site_symmetry_multiplicity
  _atom_site_fract_x
  _atom_site_fract_y
  _atom_site_fract_z
  _atom_site_occupancy
  Ba  Ba1       1.0  0.8599152565002443  0.5143964290618896  0.9812136888504027  1.0000
  Ti  Ti1       1.0  0.8607563376426698  0.5139703154563904  0.4810167551040649  1.0000
  O   O1        1.0  0.5269203186035157  0.8475750088691713  0.3261249363422394  1.0000
  O   O2        1.0  0.19409951567649844  0.18093529343605042  0.6369807720184326  1.0000
