data_image15
_chemical_formula_structural       Ba3O2TiO4TiBa
_chemical_formula_sum              "Ba4 O6 Ti2"
_cell_length_a       3.98092364285415
_cell_length_b       3.9819737232875996
_cell_length_c       15.782635688781738
_cell_angle_alpha    97.18090086743801
_cell_angle_beta     97.18131781980867
_cell_angle_gamma    90.0119552989423

_space_group_name_H-M_alt    "P 1"
_space_group_IT_number       1

loop_
  _space_group_symop_operation_xyz
  'x, y, z'

loop_
  _atom_site_type_symbol
  _atom_site_label
  _atom_site_symmetry_multiplicity
  _atom_site_fract_x
  _atom_site_fract_y
  _atom_site_fract_z
  _atom_site_occupancy
  Ba  Ba1       1.0  0.7589843273162841  0.7922542095184326  0.2816309332847595  1.0000
  Ba  Ba2       1.0  0.492899477481842  0.5277984142303467  0.7507621645927429  1.0000
  Ba  Ba3       1.0  0.6271299123764038  0.6627208590507507  0.0189390666782856  1.0000
  O   O1        1.0  0.5561725497245789  0.09043016284704208  0.8762733340263367  1.0000
  O   O2        1.0  0.20101886987686154  0.7352518439292908  0.1649429202079773  1.0000
  Ti  Ti1       1.0  0.0625399500131607  0.09747547656297684  0.8889356255531311  1.0000
  O   O3        1.0  0.1276533603668213  0.16272538900375366  0.020250514149665833  1.0000
  O   O4        1.0  0.7012006044387817  0.23519952595233917  0.16517400741577148  1.0000
  O   O5        1.0  0.05614402145147323  0.5911648273468016  0.8761549592018127  1.0000
  O   O6        1.0  0.3161592185497284  0.34929969906806946  0.39525002241134644  1.0000
  Ti  Ti2       1.0  0.19171601533889768  0.2262962460517883  0.14715956151485443  1.0000
  Ba  Ba4       1.0  0.8741131424903867  0.9067973494529723  0.5106877684593201  1.0000
