data_image358
_chemical_formula_structural       BaOTiO
_chemical_formula_sum              "Ba1 O2 Ti1"
_cell_length_a       3.301789355529171
_cell_length_b       3.3024119942534176
_cell_length_c       6.285724639892578
_cell_angle_alpha    74.82989224840809
_cell_angle_beta     74.82405204094732
_cell_angle_gamma    60.13730830476651

_space_group_name_H-M_alt    "P 1"
_space_group_IT_number       1

loop_
  _space_group_symop_operation_xyz
  'x, y, z'

loop_
  _atom_site_type_symbol
  _atom_site_label
  _atom_site_symmetry_multiplicity
  _atom_site_fract_x
  _atom_site_fract_y
  _atom_site_fract_z
  _atom_site_occupancy
  Ba  Ba1       1.0  0.4434610307216645  0.7698535919189452  0.7624121904373168  1.0000
  O   O1        1.0  0.6661887764930727  0.9929670095443724  0.09349765628576275  1.0000
  Ti  Ti1       1.0  0.9439929127693177  0.27043575048446655  0.26166644692420954  1.0000
  O   O2        1.0  0.2203521579504014  0.5469807982444762  0.43092221021652216  1.0000
