data_image888
_chemical_formula_structural       TiBaO2TiBaO4
_chemical_formula_sum              "Ti2 Ba2 O6"
_cell_length_a       4.115510954990168
_cell_length_b       4.119459371978873
_cell_length_c       7.940866470336914
_cell_angle_alpha    90.19191032647628
_cell_angle_beta     90.21010595871088
_cell_angle_gamma    89.94922687839619

_space_group_name_H-M_alt    "P 1"
_space_group_IT_number       1

loop_
  _space_group_symop_operation_xyz
  'x, y, z'

loop_
  _atom_site_type_symbol
  _atom_site_label
  _atom_site_symmetry_multiplicity
  _atom_site_fract_x
  _atom_site_fract_y
  _atom_site_fract_z
  _atom_site_occupancy
  Ti  Ti1       1.0  0.5290793776512146  0.8909385204315186  0.6736272573471069  1.0000
  Ba  Ba1       1.0  0.04604576900601387  0.4088740348815918  0.9244142174720765  1.0000
  O   O1        1.0  0.08045931905508041  0.9260948896408081  0.6735528707504272  1.0000
  O   O2        1.0  0.08162572234869003  0.9277394413948059  0.17472830414772034  1.0000
  Ti  Ti2       1.0  0.5300388932228088  0.8924214243888855  0.17404742538928986  1.0000
  Ba  Ba2       1.0  0.04655010625720024  0.40840455889701843  0.42410835623741155  1.0000
  O   O3        1.0  0.5719011425971985  0.9350641369819641  0.42485800385475164  1.0000
  O   O4        1.0  0.5713301301002502  0.9350515007972717  0.9248992800712587  1.0000
  O   O5        1.0  0.5622246265411377  0.4452303349971771  0.6741319894790649  1.0000
  O   O6        1.0  0.5635621547698975  0.4450628459453583  0.17454004287719727  1.0000
