data_image925
_chemical_formula_structural       BaTiOTiBaO3
_chemical_formula_sum              "Ba2 Ti2 O4"
_cell_length_a       5.682493600076573
_cell_length_b       5.694091681656911
_cell_length_c       5.688861846923828
_cell_angle_alpha    96.37226875868747
_cell_angle_beta     116.38698191476956
_cell_angle_gamma    116.52589442823962

_space_group_name_H-M_alt    "P 1"
_space_group_IT_number       1

loop_
  _space_group_symop_operation_xyz
  'x, y, z'

loop_
  _atom_site_type_symbol
  _atom_site_label
  _atom_site_symmetry_multiplicity
  _atom_site_fract_x
  _atom_site_fract_y
  _atom_site_fract_z
  _atom_site_occupancy
  Ba  Ba1       1.0  0.7703328132629395  0.007001070305705071  0.9903529286384583  1.0000
  Ti  Ti1       1.0  0.7712195515632629  0.5075451731681825  0.490023672580719  1.0000
  O   O1        1.0  0.6585673689842224  0.38315823674201965  0.7522956728935242  1.0000
  Ti  Ti2       1.0  0.27082639932632446  0.25716108083724976  0.739599347114563  1.0000
  Ba  Ba2       1.0  0.2710922956466675  0.7577874064445496  0.23986329138278964  1.0000
  O   O2        1.0  0.3863779902458191  0.24827109277248383  0.1156822070479393  1.0000
  O   O3        1.0  0.8862472772598267  0.883567214012146  0.47952899336814886  1.0000
  O   O4        1.0  0.15823708474636078  0.5192434191703796  0.6150487661361694  1.0000
