data_image493
_chemical_formula_structural       O2TiBaTiO4Ba
_chemical_formula_sum              "O6 Ti2 Ba2"
_cell_length_a       5.533783073069394
_cell_length_b       5.536569168765215
_cell_length_c       4.613300323486328
_cell_angle_alpha    90.00772061853306
_cell_angle_beta     90.01163431651108
_cell_angle_gamma    90.07270986209939

_space_group_name_H-M_alt    "P 1"
_space_group_IT_number       1

loop_
  _space_group_symop_operation_xyz
  'x, y, z'

loop_
  _atom_site_type_symbol
  _atom_site_label
  _atom_site_symmetry_multiplicity
  _atom_site_fract_x
  _atom_site_fract_y
  _atom_site_fract_z
  _atom_site_occupancy
  O   O1        1.0  0.835698664188385  0.4797779619693756  0.2882644534111023  1.0000
  O   O2        1.0  0.33543631434440613  0.47962498664855957  0.28822824358940125  1.0000
  Ti  Ti1       1.0  0.08568771928548813  0.7301726937294007  0.2083616405725479  1.0000
  Ba  Ba1       1.0  0.08512786775827408  0.22985796630382538  0.7200825214385986  1.0000
  Ti  Ti2       1.0  0.5856836438179016  0.23017857968807223  0.20850344002246857  1.0000
  O   O3        1.0  0.8355878591537476  0.9799474477767944  0.2871802747249603  1.0000
  O   O4        1.0  0.584958553314209  0.22974903881549835  0.8244189023971558  1.0000
  O   O5        1.0  0.3352593779563904  0.9797027707099915  0.2879265546798706  1.0000
  O   O6        1.0  0.08511148393154144  0.7296982407569885  0.824413537979126  1.0000
  Ba  Ba2       1.0  0.5860196948051453  0.7300022840499878  0.72027587890625  1.0000
