data_image428
_chemical_formula_structural       TiBaOBaO2TiO2
_chemical_formula_sum              "Ti2 Ba2 O5"
_cell_length_a       4.0443837499114075
_cell_length_b       6.45339527691102
_cell_length_c       6.618880271911621
_cell_angle_alpha    112.76326643043821
_cell_angle_beta     89.96626819794831
_cell_angle_gamma    108.15633724005444

_space_group_name_H-M_alt    "P 1"
_space_group_IT_number       1

loop_
  _space_group_symop_operation_xyz
  'x, y, z'

loop_
  _atom_site_type_symbol
  _atom_site_label
  _atom_site_symmetry_multiplicity
  _atom_site_fract_x
  _atom_site_fract_y
  _atom_site_fract_z
  _atom_site_occupancy
  Ti  Ti1       1.0  0.5579613447189331  0.7055994868278503  0.2499870806932449  1.0000
  Ba  Ba1       1.0  0.12410993129014974  0.838383972644806  0.8525031208992006  1.0000
  O   O1        1.0  0.37518757581710815  0.3411619365215302  0.15049126744270325  1.0000
  Ba  Ba2       1.0  0.2883811295032501  0.16699036955833435  0.509458065032959  1.0000
  O   O2        1.0  0.6968900561332703  0.9830937981605531  0.15290792286396027  1.0000
  O   O3        1.0  0.9231821894645691  0.43700891733169556  0.5161488056182861  1.0000
  Ti  Ti2       1.0  0.876639723777771  0.34327456355094915  0.21444737911224368  1.0000
  O   O4        1.0  0.6424397826194763  0.8738431334495546  0.5511128306388855  1.0000
  O   O5        1.0  0.036897409707307816  0.6636268496513367  0.1857715547084808  1.0000
