data_image746
_chemical_formula_structural       BaOTi2
_chemical_formula_sum              "Ba1 O1 Ti2"
_cell_length_a       3.1985884368401636
_cell_length_b       3.20073138259972
_cell_length_c       8.450041770935059
_cell_angle_alpha    79.17848352116226
_cell_angle_beta     79.1738515691502
_cell_angle_gamma    60.06168478904883

_space_group_name_H-M_alt    "P 1"
_space_group_IT_number       1

loop_
  _space_group_symop_operation_xyz
  'x, y, z'

loop_
  _atom_site_type_symbol
  _atom_site_label
  _atom_site_symmetry_multiplicity
  _atom_site_fract_x
  _atom_site_fract_y
  _atom_site_fract_z
  _atom_site_occupancy
  Ba  Ba1       1.0  0.25203979015350336  0.8725185394287108  0.6847326755523682  1.0000
  O   O1        1.0  0.5054288506507874  0.1259293556213379  0.9255843162536621  1.0000
  Ti  Ti1       1.0  0.043498843908309937  0.6610295176506042  0.317009836435318  1.0000
  Ti  Ti2       1.0  0.7977328896522522  0.4184112250804901  0.04925774037837982  1.0000
