data_image916
_chemical_formula_structural       BaTiO4
_chemical_formula_sum              "Ba1 Ti1 O4"
_cell_length_a       3.9522735301941725
_cell_length_b       4.227857367624623
_cell_length_c       5.043349266052246
_cell_angle_alpha    90.92022020388971
_cell_angle_beta     96.00108894185293
_cell_angle_gamma    89.95361867860068

_space_group_name_H-M_alt    "P 1"
_space_group_IT_number       1

loop_
  _space_group_symop_operation_xyz
  'x, y, z'

loop_
  _atom_site_type_symbol
  _atom_site_label
  _atom_site_symmetry_multiplicity
  _atom_site_fract_x
  _atom_site_fract_y
  _atom_site_fract_z
  _atom_site_occupancy
  Ba  Ba1       1.0  0.9628335237503052  0.4172621965408326  0.18555587530136108  1.0000
  Ti  Ti1       1.0  0.49805325269699097  0.9565627574920654  0.5983031392097473  1.0000
  O   O1        1.0  0.4108860492706299  0.8928746581077576  0.19652284681797028  1.0000
  O   O2        1.0  0.6197871565818787  0.9061729907989502  0.9696708917617798  1.0000
  O   O3        1.0  0.021569769829511642  0.9046656489372253  0.5695769190788269  1.0000
  O   O4        1.0  0.5202520489692688  0.38382735848426824  0.5763557553291322  1.0000
