data_image526
_chemical_formula_structural       TiO3
_chemical_formula_sum              "Ti1 O3"
_cell_length_a       3.837748069338622
_cell_length_b       3.8472064028281667
_cell_length_c       3.8518686294555664
_cell_angle_alpha    90.06751892777548
_cell_angle_beta     90.02097118597554
_cell_angle_gamma    90.08577601668246

_space_group_name_H-M_alt    "P 1"
_space_group_IT_number       1

loop_
  _space_group_symop_operation_xyz
  'x, y, z'

loop_
  _atom_site_type_symbol
  _atom_site_label
  _atom_site_symmetry_multiplicity
  _atom_site_fract_x
  _atom_site_fract_y
  _atom_site_fract_z
  _atom_site_occupancy
  Ti  Ti1       1.0  0.6823089122772217  0.8447309136390685  0.32660102844238276  1.0000
  O   O1        1.0  0.6823830604553223  0.345054030418396  0.32653105258941645  1.0000
  O   O2        1.0  0.1823689341545105  0.8457088470458984  0.32583686709403986  1.0000
  O   O3        1.0  0.6824917793273926  0.8453177809715271  0.8264634609222411  1.0000
