data_image239
_chemical_formula_structural       Ba2Ti2BaO5
_chemical_formula_sum              "Ba3 Ti2 O5"
_cell_length_a       3.6550396366135054
_cell_length_b       6.780556997070037
_cell_length_c       8.82828140258789
_cell_angle_alpha    110.25597350951249
_cell_angle_beta     89.88409420059666
_cell_angle_gamma    89.9834051485597

_space_group_name_H-M_alt    "P 1"
_space_group_IT_number       1

loop_
  _space_group_symop_operation_xyz
  'x, y, z'

loop_
  _atom_site_type_symbol
  _atom_site_label
  _atom_site_symmetry_multiplicity
  _atom_site_fract_x
  _atom_site_fract_y
  _atom_site_fract_z
  _atom_site_occupancy
  Ba  Ba1       1.0  0.49351376295089716  0.8550466299057007  0.5189282894134521  1.0000
  Ba  Ba2       1.0  0.49428233504295344  0.8607915043830872  0.025580478832125664  1.0000
  Ti  Ti1       1.0  0.9937732219696044  0.5280705690383911  0.18506059050559995  1.0000
  Ti  Ti2       1.0  0.9943630695343016  0.22816523909568787  0.8856425881385803  1.0000
  Ba  Ba3       1.0  0.9934270381927489  0.27308669686317444  0.404136061668396  1.0000
  O   O1        1.0  0.9942542314529418  0.17828901112079618  0.08319909125566483  1.0000
  O   O2        1.0  0.49482068419456476  0.1332447677850723  0.8246777057647705  1.0000
  O   O3        1.0  0.995073914527893  0.5346798300743103  0.9681143760681152  1.0000
  O   O4        1.0  0.4934897124767303  0.5027380585670471  0.2758878171443939  1.0000
  O   O5        1.0  0.9937357306480407  0.8382446765899657  0.2786214351654053  1.0000
