data_image871
_chemical_formula_structural       TiBaO
_chemical_formula_sum              "Ti1 Ba1 O1"
_cell_length_a       3.902316003030605
_cell_length_b       4.204790163949986
_cell_length_c       4.2093095779418945
_cell_angle_alpha    89.97135669069955
_cell_angle_beta     90.0157802423442
_cell_angle_gamma    90.01241978890353

_space_group_name_H-M_alt    "P 1"
_space_group_IT_number       1

loop_
  _space_group_symop_operation_xyz
  'x, y, z'

loop_
  _atom_site_type_symbol
  _atom_site_label
  _atom_site_symmetry_multiplicity
  _atom_site_fract_x
  _atom_site_fract_y
  _atom_site_fract_z
  _atom_site_occupancy
  Ti  Ti1       1.0  0.9828218221664429  0.17356285452842712  0.13936561346054077  1.0000
  Ba  Ba1       1.0  0.48304998874664307  0.6736968159675598  0.6392415165901184  1.0000
  O   O1        1.0  0.48215916752815247  0.17396415770053864  0.13886451721191406  1.0000
