data_image900
_chemical_formula_structural       BaOBaO2TiBaTiOTiO4
_chemical_formula_sum              "Ba3 O8 Ti3"
_cell_length_a       5.715688970168426
_cell_length_b       6.210277904234149
_cell_length_c       7.994995594024658
_cell_angle_alpha    89.108724264218
_cell_angle_beta     76.4571302915361
_cell_angle_gamma    74.64967721296185

_space_group_name_H-M_alt    "P 1"
_space_group_IT_number       1

loop_
  _space_group_symop_operation_xyz
  'x, y, z'

loop_
  _atom_site_type_symbol
  _atom_site_label
  _atom_site_symmetry_multiplicity
  _atom_site_fract_x
  _atom_site_fract_y
  _atom_site_fract_z
  _atom_site_occupancy
  Ba  Ba1       1.0  0.5430140495300293  0.141159325838089  0.22468048334121707  1.0000
  O   O1        1.0  0.48927372694015514  0.8423534631729126  0.4862727224826813  1.0000
  Ba  Ba2       1.0  0.20484158396720886  0.1736442595720291  0.7915269136428833  1.0000
  O   O2        1.0  0.70415598154068  0.8435326814651489  0.9324262142181398  1.0000
  O   O3        1.0  0.773158073425293  0.45260521769523615  0.6924214363098145  1.0000
  Ti  Ti1       1.0  0.49187842011451727  0.5877753496170044  0.603714644908905  1.0000
  Ba  Ba3       1.0  0.9751612544059755  0.7703049778938292  0.5099024176597595  1.0000
  Ti  Ti2       1.0  0.02014949545264244  0.6740356683731079  0.01805255375802517  1.0000
  O   O4        1.0  0.35961422324180603  0.39739367365837097  0.5123189091682434  1.0000
  Ti  Ti3       1.0  0.5944939851760864  0.5836623907089233  0.9253854155540465  1.0000
  O   O5        1.0  0.9923077821731568  0.868782103061676  0.1904771625995636  1.0000
  O   O6        1.0  0.8378592729568481  0.4420467019081116  0.045669525861740085  1.0000
  O   O7        1.0  0.24647954106330877  0.7401792407035828  0.8081715106964111  1.0000
  O   O8        1.0  0.3254527747631073  0.444757878780365  0.03536278381943703  1.0000
