data_image570
_chemical_formula_structural       Ba3OBaTiO5Ti
_chemical_formula_sum              "Ba4 O6 Ti2"
_cell_length_a       5.356554968347119
_cell_length_b       5.50165321361409
_cell_length_c       10.465060234069824
_cell_angle_alpha    80.63325180724992
_cell_angle_beta     89.91994585340228
_cell_angle_gamma    61.046939838457725

_space_group_name_H-M_alt    "P 1"
_space_group_IT_number       1

loop_
  _space_group_symop_operation_xyz
  'x, y, z'

loop_
  _atom_site_type_symbol
  _atom_site_label
  _atom_site_symmetry_multiplicity
  _atom_site_fract_x
  _atom_site_fract_y
  _atom_site_fract_z
  _atom_site_occupancy
  Ba  Ba1       1.0  0.968774676322937  0.41903355717658997  0.7248721122741699  1.0000
  Ba  Ba2       1.0  0.8086954951286316  0.7369575500488281  0.2814449667930603  1.0000
  Ba  Ba3       1.0  0.2211584150791169  0.9205996394157409  0.5332131385803223  1.0000
  O   O1        1.0  0.48359620571136475  0.8814889192581176  0.7741586565971375  1.0000
  Ba  Ba4       1.0  0.05945434048771859  0.2408967763185501  0.09042519330978394  1.0000
  Ti  Ti1       1.0  0.7097132802009583  0.9391275644302367  0.9028039574623108  1.0000
  O   O2        1.0  0.5147837400436401  0.3292067050933838  0.9080185294151306  1.0000
  O   O3        1.0  0.515849232673645  0.32686105370521545  0.4075348377227783  1.0000
  O   O4        1.0  0.9939326047897339  0.8816052675247192  0.7734896540641785  1.0000
  O   O5        1.0  0.5457840561866761  0.7771493196487427  0.04080067574977875  1.0000
  O   O6        1.0  0.03577574342489242  0.7766656875610352  0.04145497083663942  1.0000
  Ti  Ti2       1.0  0.31955522298812866  0.7198607921600342  0.9122553467750549  1.0000
