data_image695
_chemical_formula_structural       TiBaOBaO3TiO2
_chemical_formula_sum              "Ti2 Ba2 O6"
_cell_length_a       4.286030031586753
_cell_length_b       5.628988828067529
_cell_length_c       5.63241720199585
_cell_angle_alpha    90.1619872698023
_cell_angle_beta     90.07857700269228
_cell_angle_gamma    90.07305820399534

_space_group_name_H-M_alt    "P 1"
_space_group_IT_number       1

loop_
  _space_group_symop_operation_xyz
  'x, y, z'

loop_
  _atom_site_type_symbol
  _atom_site_label
  _atom_site_symmetry_multiplicity
  _atom_site_fract_x
  _atom_site_fract_y
  _atom_site_fract_z
  _atom_site_occupancy
  Ti  Ti1       1.0  0.6356942653656006  0.7670004367828368  0.7535735964775085  1.0000
  Ba  Ba1       1.0  0.11755786836147308  0.767005443572998  0.25306519865989685  1.0000
  O   O1        1.0  0.5761090517044067  0.5170596241950989  0.5030267238616943  1.0000
  Ba  Ba2       1.0  0.11656052619218826  0.26666948199272156  0.7535140514373779  1.0000
  O   O2        1.0  0.5768395066261292  0.016651775687932968  0.003436684608459473  1.0000
  O   O3        1.0  0.5777986645698547  0.016361834481358528  0.5036402940750122  1.0000
  O   O4        1.0  0.0528375580906868  0.7668595910072326  0.7535360455513  1.0000
  Ti  Ti2       1.0  0.6354594826698303  0.2665964663028717  0.25366121530532837  1.0000
  O   O5        1.0  0.052714549005031586  0.26712507009506226  0.2536650002002716  1.0000
  O   O6        1.0  0.5762893557548523  0.5165324807167053  0.0038282871246337895  1.0000
