data_image869
_chemical_formula_structural       BaTi2BaO2
_chemical_formula_sum              "Ba2 Ti2 O2"
_cell_length_a       3.598258618748718
_cell_length_b       3.9926241506070412
_cell_length_c       10.086471557617188
_cell_angle_alpha    90.16500622048862
_cell_angle_beta     90.03309476990549
_cell_angle_gamma    90.06406284850763

_space_group_name_H-M_alt    "P 1"
_space_group_IT_number       1

loop_
  _space_group_symop_operation_xyz
  'x, y, z'

loop_
  _atom_site_type_symbol
  _atom_site_label
  _atom_site_symmetry_multiplicity
  _atom_site_fract_x
  _atom_site_fract_y
  _atom_site_fract_z
  _atom_site_occupancy
  Ba  Ba1       1.0  0.2267812341451645  0.7092503309249878  0.7916874289512634  1.0000
  Ti  Ti1       1.0  0.7244321703910828  0.20860467851161957  0.04966702312231064  1.0000
  Ti  Ti2       1.0  0.22464251518249512  0.7093663215637207  0.1288546621799469  1.0000
  Ba  Ba2       1.0  0.7249594330787659  0.2089449167251587  0.38770216703414917  1.0000
  O   O1        1.0  0.22373081743717194  0.21057316660881042  0.1616581380367279  1.0000
  O   O2        1.0  0.7239670157432556  0.7077997326850892  0.01719607412815094  1.0000
