data_image71
_chemical_formula_structural       O2TiBa2OTiO3
_chemical_formula_sum              "O6 Ti2 Ba2"
_cell_length_a       5.711564655846399
_cell_length_b       5.708366301188924
_cell_length_c       5.714432239532471
_cell_angle_alpha    90.56971540457911
_cell_angle_beta     119.55213471007136
_cell_angle_gamma    119.59734921502445

_space_group_name_H-M_alt    "P 1"
_space_group_IT_number       1

loop_
  _space_group_symop_operation_xyz
  'x, y, z'

loop_
  _atom_site_type_symbol
  _atom_site_label
  _atom_site_symmetry_multiplicity
  _atom_site_fract_x
  _atom_site_fract_y
  _atom_site_fract_z
  _atom_site_occupancy
  O   O1        1.0  0.30369701981544495  0.7438532710075378  0.2004704624414444  1.0000
  O   O2        1.0  0.8049002885818481  0.2448607087135315  0.20104554295539856  1.0000
  Ti  Ti1       1.0  0.30460086464881897  0.9950293898582458  0.9507617950439451  1.0000
  Ba  Ba1       1.0  0.8042259216308594  0.7446314692497253  0.20065557956695548  1.0000
  Ba  Ba2       1.0  0.8040463924407959  0.24480240046977997  0.70041823387146  1.0000
  O   O3        1.0  0.3040716052055359  0.2443898767232895  0.20074072480201716  1.0000
  Ti  Ti2       1.0  0.30414712429046625  0.494780421257019  0.4503052234649658  1.0000
  O   O4        1.0  0.3039219379425049  0.7448071837425232  0.7003689408302307  1.0000
  O   O5        1.0  0.8037915825843811  0.744600772857666  0.7003774046897888  1.0000
  O   O6        1.0  0.30432960391044617  0.24470561742782593  0.7013596296310425  1.0000
