data_image655
_chemical_formula_structural       O2TiOBa2OTiO2
_chemical_formula_sum              "O6 Ti2 Ba2"
_cell_length_a       5.646311504175119
_cell_length_b       5.649151157228673
_cell_length_c       5.859260559082031
_cell_angle_alpha    118.80712651800262
_cell_angle_beta     118.72437300997375
_cell_angle_gamma    89.97806121600597

_space_group_name_H-M_alt    "P 1"
_space_group_IT_number       1

loop_
  _space_group_symop_operation_xyz
  'x, y, z'

loop_
  _atom_site_type_symbol
  _atom_site_label
  _atom_site_symmetry_multiplicity
  _atom_site_fract_x
  _atom_site_fract_y
  _atom_site_fract_z
  _atom_site_occupancy
  O   O1        1.0  0.7604753375053406  0.10517055541276932  0.15812692046165466  1.0000
  O   O2        1.0  0.2611660957336426  0.10608474165201187  0.15996825695037842  1.0000
  Ti  Ti1       1.0  0.040974106639623656  0.8851436376571655  0.21937298774719238  1.0000
  O   O3        1.0  0.7614947557449341  0.6061349511146545  0.16069075465202332  1.0000
  Ba  Ba1       1.0  0.7805808782577515  0.12546034157276154  0.6984034776687622  1.0000
  Ba  Ba2       1.0  0.2796798348426819  0.6245502233505249  0.697651743888855  1.0000
  O   O4        1.0  0.2606472074985504  0.6058527827262878  0.15867888927459717  1.0000
  Ti  Ti2       1.0  0.5399672985076904  0.38562899827957153  0.2192077338695526  1.0000
  O   O5        1.0  0.25064802169799805  0.0958201065659523  0.6382797956466675  1.0000
  O   O6        1.0  0.7504730224609375  0.5955734848976135  0.6381271481513977  1.0000
