data_image964
_chemical_formula_structural       O2Ba2O2TiO2
_chemical_formula_sum              "O6 Ba2 Ti1"
_cell_length_a       5.04963895621831
_cell_length_b       6.201368842426554
_cell_length_c       6.204651355743408
_cell_angle_alpha    61.1015341737488
_cell_angle_beta     66.34166705005653
_cell_angle_gamma    66.26687784914523

_space_group_name_H-M_alt    "P 1"
_space_group_IT_number       1

loop_
  _space_group_symop_operation_xyz
  'x, y, z'

loop_
  _atom_site_type_symbol
  _atom_site_label
  _atom_site_symmetry_multiplicity
  _atom_site_fract_x
  _atom_site_fract_y
  _atom_site_fract_z
  _atom_site_occupancy
  O   O1        1.0  0.698758661746979  0.8648700714111327  0.2651193141937256  1.0000
  O   O2        1.0  0.8676020503044128  0.1777150183916092  0.33005794882774353  1.0000
  Ba  Ba1       1.0  0.2937886714935303  0.3248738646507263  0.3343214988708496  1.0000
  Ba  Ba2       1.0  0.825920522212982  0.7898401618003846  0.7971276640892029  1.0000
  O   O3        1.0  0.2526789009571075  0.792019546031952  0.9438250660896301  1.0000
  O   O4        1.0  0.4160854518413544  0.8558676242828368  0.26292234659194946  1.0000
  Ti  Ti1       1.0  0.06224822252988815  0.04015533626079559  0.08157999068498611  1.0000
  O   O5        1.0  0.9092415571212769  0.3153480887413025  0.8050490021705627  1.0000
  O   O6        1.0  0.2208838164806366  0.3133581578731537  0.8105143308639526  1.0000
