data_image215
_chemical_formula_structural       TiBaOTiBaTiO6
_chemical_formula_sum              "Ti3 Ba2 O7"
_cell_length_a       3.906875637158651
_cell_length_b       5.968130023640941
_cell_length_c       8.456772804260254
_cell_angle_alpha    109.36835006827025
_cell_angle_beta     103.17715851345008
_cell_angle_gamma    89.94941822071543

_space_group_name_H-M_alt    "P 1"
_space_group_IT_number       1

loop_
  _space_group_symop_operation_xyz
  'x, y, z'

loop_
  _atom_site_type_symbol
  _atom_site_label
  _atom_site_symmetry_multiplicity
  _atom_site_fract_x
  _atom_site_fract_y
  _atom_site_fract_z
  _atom_site_occupancy
  Ti  Ti1       1.0  0.03329098969697954  0.8143161535263063  0.959054708480835  1.0000
  Ba  Ba1       1.0  0.7145401835441589  0.9795882105827333  0.32330420613288885  1.0000
  O   O1        1.0  0.726667046546936  0.4575144350528717  0.3466058671474457  1.0000
  Ti  Ti2       1.0  0.20337283611297607  0.46362268924713135  0.29720035195350647  1.0000
  Ba  Ba2       1.0  0.5045292973518372  0.28981563448905945  0.8998734951019287  1.0000
  Ti  Ti3       1.0  0.8576207756996155  0.6585103869438172  0.6028148531913757  1.0000
  O   O2        1.0  0.543904721736908  0.8030061125755311  0.9808801412582397  1.0000
  O   O3        1.0  0.9445237517356873  0.964587152004242  0.7804035544395447  1.0000
  O   O4        1.0  0.1314118653535843  0.13811713457107544  0.15513096749782562  1.0000
  O   O5        1.0  0.12805639207363131  0.6351856589317323  0.14755362272262576  1.0000
  O   O6        1.0  0.3246268033981323  0.7091031074523926  0.5388196706771851  1.0000
  O   O7        1.0  0.931346595287323  0.48584824800491333  0.753360390663147  1.0000
