data_image710
_chemical_formula_structural       TiOBaO
_chemical_formula_sum              "Ti1 O2 Ba1"
_cell_length_a       3.043898643746835
_cell_length_b       3.6747938984891855
_cell_length_c       5.881889820098877
_cell_angle_alpha    90.06766235894321
_cell_angle_beta     90.01149771295397
_cell_angle_gamma    90.01498110956081

_space_group_name_H-M_alt    "P 1"
_space_group_IT_number       1

loop_
  _space_group_symop_operation_xyz
  'x, y, z'

loop_
  _atom_site_type_symbol
  _atom_site_label
  _atom_site_symmetry_multiplicity
  _atom_site_fract_x
  _atom_site_fract_y
  _atom_site_fract_z
  _atom_site_occupancy
  Ti  Ti1       1.0  0.09409915655851364  0.7661316990852357  0.2969495952129364  1.0000
  O   O1        1.0  0.5946339964866638  0.7663508057594299  0.5252285003662109  1.0000
  Ba  Ba1       1.0  0.09540221095085144  0.26642927527427673  0.7969946861267089  1.0000
  O   O2        1.0  0.594436764717102  0.7657859921455384  0.06843133270740509  1.0000
