data_image983
_chemical_formula_structural       BaOTiO
_chemical_formula_sum              "Ba1 O2 Ti1"
_cell_length_a       3.2593528498435926
_cell_length_b       3.2590471641131713
_cell_length_c       6.538291931152344
_cell_angle_alpha    75.51392118261317
_cell_angle_beta     75.5532907884825
_cell_angle_gamma    59.96879450085085

_space_group_name_H-M_alt    "P 1"
_space_group_IT_number       1

loop_
  _space_group_symop_operation_xyz
  'x, y, z'

loop_
  _atom_site_type_symbol
  _atom_site_label
  _atom_site_symmetry_multiplicity
  _atom_site_fract_x
  _atom_site_fract_y
  _atom_site_fract_z
  _atom_site_occupancy
  Ba  Ba1       1.0  0.5665899515151978  0.5635314583778381  0.13609877228736877  1.0000
  O   O1        1.0  0.006030678749084473  0.00162726198323071  0.8194902539253234  1.0000
  Ti  Ti1       1.0  0.39410561323165894  0.3883761763572693  0.6565504670143127  1.0000
  O   O2        1.0  0.7826279997825621  0.7781260013580323  0.49014139175415034  1.0000
