data_image603
_chemical_formula_structural       Ti2BaOBaO5
_chemical_formula_sum              "Ti2 Ba2 O6"
_cell_length_a       5.083092100590684
_cell_length_b       5.847565928875776
_cell_length_c       5.845746994018555
_cell_angle_alpha    120.25477075069857
_cell_angle_beta     90.11578104818858
_cell_angle_gamma    90.08535935144413

_space_group_name_H-M_alt    "P 1"
_space_group_IT_number       1

loop_
  _space_group_symop_operation_xyz
  'x, y, z'

loop_
  _atom_site_type_symbol
  _atom_site_label
  _atom_site_symmetry_multiplicity
  _atom_site_fract_x
  _atom_site_fract_y
  _atom_site_fract_z
  _atom_site_occupancy
  Ti  Ti1       1.0  0.8191808462142944  0.743228852748871  0.44610965251922613  1.0000
  Ti  Ti2       1.0  0.31937041878700256  0.7431641817092897  0.4462307989597321  1.0000
  Ba  Ba1       1.0  0.5695524215698242  0.409653127193451  0.7797445058822632  1.0000
  O   O1        1.0  0.5692350268363953  0.8928049802780152  0.7451096177101135  1.0000
  Ba  Ba2       1.0  0.06808120012283325  0.07678292691707612  0.11207686364650725  1.0000
  O   O2        1.0  0.570012092590332  0.44424960017204285  0.2964167296886444  1.0000
  O   O3        1.0  0.569223940372467  0.8926758766174318  0.29672533273696905  1.0000
  O   O4        1.0  0.06978071480989456  0.5935825109481813  0.14695321023464206  1.0000
  O   O5        1.0  0.06875653564929962  0.04199700430035592  0.5953301191329956  1.0000
  O   O6        1.0  0.06897836178541183  0.5939214825630188  0.5953318476676941  1.0000
