data_image202
_chemical_formula_structural       BaTiO3BaTiO3
_chemical_formula_sum              "Ba2 Ti2 O6"
_cell_length_a       4.008927401936649
_cell_length_b       5.747099225564707
_cell_length_c       6.59253454208374
_cell_angle_alpha    115.89686200570584
_cell_angle_beta     90.00963307124665
_cell_angle_gamma    90.04965798095196

_space_group_name_H-M_alt    "P 1"
_space_group_IT_number       1

loop_
  _space_group_symop_operation_xyz
  'x, y, z'

loop_
  _atom_site_type_symbol
  _atom_site_label
  _atom_site_symmetry_multiplicity
  _atom_site_fract_x
  _atom_site_fract_y
  _atom_site_fract_z
  _atom_site_occupancy
  Ba  Ba1       1.0  0.599235475063324  0.2752971351146698  0.6610998511314391  1.0000
  Ti  Ti1       1.0  0.1154952123761177  0.5045202374458313  0.12851752340793612  1.0000
  O   O1        1.0  0.08079114556312561  0.6331288814544678  0.8790798187255858  1.0000
  O   O2        1.0  0.082973413169384  0.13283565640449524  0.8792355060577391  1.0000
  O   O3        1.0  0.08513080328702927  0.8602306842803955  0.3798383474349976  1.0000
  Ba  Ba2       1.0  0.5977485775947571  0.9906246066093445  0.09709751605987554  1.0000
  Ti  Ti2       1.0  0.11426470428705215  0.761515736579895  0.6298688054084777  1.0000
  O   O4        1.0  0.574744701385498  0.7698531150817871  0.6529037356376647  1.0000
  O   O5        1.0  0.5752021670341492  0.49519187211990356  0.10557936877012256  1.0000
  O   O6        1.0  0.08543971180915833  0.4052791893482209  0.378053069114685  1.0000
