data_image532
_chemical_formula_structural       OBaTiBaO5TiO2
_chemical_formula_sum              "O8 Ba2 Ti2"
_cell_length_a       3.9706359971557106
_cell_length_b       6.435974147363209
_cell_length_c       7.647988796234131
_cell_angle_alpha    100.18898542086978
_cell_angle_beta     104.85690795299632
_cell_angle_gamma    90.07219746533913

_space_group_name_H-M_alt    "P 1"
_space_group_IT_number       1

loop_
  _space_group_symop_operation_xyz
  'x, y, z'

loop_
  _atom_site_type_symbol
  _atom_site_label
  _atom_site_symmetry_multiplicity
  _atom_site_fract_x
  _atom_site_fract_y
  _atom_site_fract_z
  _atom_site_occupancy
  O   O1        1.0  0.9607436060905458  0.4647222757339477  0.33400699496269226  1.0000
  Ba  Ba1       1.0  0.003317528404295445  0.0351998507976532  0.41883149743080145  1.0000
  Ti  Ti1       1.0  0.47763380408287054  0.4606055915355682  0.3674449920654297  1.0000
  Ba  Ba2       1.0  0.753406822681427  0.39383435249328613  0.9205579757690431  1.0000
  O   O2        1.0  0.4160674512386322  0.7483130097389221  0.24435439705848697  1.0000
  O   O3        1.0  0.801865816116333  0.9591425657272339  0.0165036674588919  1.0000
  O   O4        1.0  0.5686035752296448  0.32443276047706604  0.5520307421684265  1.0000
  O   O5        1.0  0.19080592691898346  0.09145981818437576  0.7925633192062378  1.0000
  O   O6        1.0  0.37934601306915283  0.2173001319169998  0.16920071840286255  1.0000
  Ti  Ti2       1.0  0.28106752038002014  0.9487419724464415  0.9738956093788148  1.0000
  O   O7        1.0  0.24183434247970584  0.6605452299118042  0.8975258469581605  1.0000
  O   O8        1.0  0.5190496444702148  0.7683620452880859  0.4535700976848603  1.0000
