data_image410
_chemical_formula_structural       TiOBa2O2Ba2Ti3O9
_chemical_formula_sum              "Ti4 O12 Ba4"
_cell_length_a       3.858965953355087
_cell_length_b       8.905807051626208
_cell_length_c       10.229887008666992
_cell_angle_alpha    82.25430126906082
_cell_angle_beta     80.88404908686137
_cell_angle_gamma    77.5997939997661

_space_group_name_H-M_alt    "P 1"
_space_group_IT_number       1

loop_
  _space_group_symop_operation_xyz
  'x, y, z'

loop_
  _atom_site_type_symbol
  _atom_site_label
  _atom_site_symmetry_multiplicity
  _atom_site_fract_x
  _atom_site_fract_y
  _atom_site_fract_z
  _atom_site_occupancy
  Ti  Ti1       1.0  0.35780060291290283  0.9151356816291808  0.22043883800506592  1.0000
  O   O1        1.0  0.37254709005355835  0.021996978670358654  0.055090002715587616  1.0000
  Ba  Ba1       1.0  0.9036425352096558  0.09348691999912262  0.8694509863853455  1.0000
  Ba  Ba2       1.0  0.6716617345809937  0.10295916348695755  0.46701157093048096  1.0000
  O   O2        1.0  0.12242607772350311  0.44891187548637385  0.15321476757526398  1.0000
  O   O3        1.0  0.7519290447235107  0.25256747007369995  0.07724770158529283  1.0000
  Ba  Ba3       1.0  0.9402848482131959  0.6020551323890686  0.373455673456192  1.0000
  Ba  Ba4       1.0  0.6456573605537415  0.5608867406845093  0.992863118648529  1.0000
  Ti  Ti2       1.0  0.23188528418540955  0.24701444804668427  0.13383308053016663  1.0000
  Ti  Ti3       1.0  0.4731674492359162  0.7844035625457763  0.6762508153915405  1.0000
  Ti  Ti4       1.0  0.27997735142707825  0.48546823859214777  0.68852299451828  1.0000
  O   O4        1.0  0.3028290271759033  0.3388119041919708  0.8227882981300354  1.0000
  O   O5        1.0  0.3021194636821746  0.8202434182167053  0.5209169983863831  1.0000
  O   O6        1.0  0.17063558101654053  0.6969881653785704  0.8092936277389526  1.0000
  O   O7        1.0  0.21957556903362274  0.1438015103340149  0.2989793121814728  1.0000
  O   O8        1.0  0.5191259384155275  0.9721622467041016  0.7157717943191528  1.0000
  O   O9        1.0  0.7768630981445312  0.5678679943084717  0.6711372137069702  1.0000
  O   O10       1.0  0.8384522199630737  0.9122265577316284  0.27771908044815063  1.0000
  O   O11       1.0  0.4632709920406342  0.7127297520637511  0.20720525085926056  1.0000
  O   O12       1.0  0.4258819818496704  0.4064555764198303  0.5301044583320618  1.0000
