data_image715
_chemical_formula_structural       O4Ba2
_chemical_formula_sum              "O4 Ba2"
_cell_length_a       4.656017629483047
_cell_length_b       4.6552349893466545
_cell_length_c       5.239819049835205
_cell_angle_alpha    90.10807657447387
_cell_angle_beta     90.23435994438952
_cell_angle_gamma    90.52093419766541

_space_group_name_H-M_alt    "P 1"
_space_group_IT_number       1

loop_
  _space_group_symop_operation_xyz
  'x, y, z'

loop_
  _atom_site_type_symbol
  _atom_site_label
  _atom_site_symmetry_multiplicity
  _atom_site_fract_x
  _atom_site_fract_y
  _atom_site_fract_z
  _atom_site_occupancy
  O   O1        1.0  0.08157699555158615  0.9144247770309448  0.5119467973709106  1.0000
  O   O2        1.0  0.8574422597885132  0.6922846436500549  0.51227205991745  1.0000
  O   O3        1.0  0.3590686619281769  0.41241690516471863  0.012096577323973179  1.0000
  O   O4        1.0  0.5818475484848022  0.1901237666606903  0.011885697022080421  1.0000
  Ba  Ba1       1.0  0.4710586965084076  0.30187347531318665  0.5116347074508667  1.0000
  Ba  Ba2       1.0  0.9706994295120239  0.8025063276290894  0.012653589248657227  1.0000
