data_image812
_chemical_formula_structural       TiO3BaO2TiO2
_chemical_formula_sum              "Ti2 O7 Ba1"
_cell_length_a       3.892661611755429
_cell_length_b       6.580805101624296
_cell_length_c       5.940303325653076
_cell_angle_alpha    119.24725151370684
_cell_angle_beta     90.00823971228544
_cell_angle_gamma    89.88016684347686

_space_group_name_H-M_alt    "P 1"
_space_group_IT_number       1

loop_
  _space_group_symop_operation_xyz
  'x, y, z'

loop_
  _atom_site_type_symbol
  _atom_site_label
  _atom_site_symmetry_multiplicity
  _atom_site_fract_x
  _atom_site_fract_y
  _atom_site_fract_z
  _atom_site_occupancy
  Ti  Ti1       1.0  0.5326528549194336  0.5654197335243225  0.48629471659660345  1.0000
  O   O1        1.0  0.5325419306755066  0.40803158283233637  0.11343383789062501  1.0000
  O   O2        1.0  0.03255040571093559  0.5905479788780212  0.4874348640441895  1.0000
  O   O3        1.0  0.5324713587760925  0.23794612288475037  0.3905963897705078  1.0000
  Ba  Ba1       1.0  0.032057154923677444  0.9085087180137633  0.1122432574629783  1.0000
  O   O4        1.0  0.5322246551513672  0.9314953684806824  0.7470107078552246  1.0000
  O   O5        1.0  0.5331025719642639  0.8838239312171936  0.4763420820236207  1.0000
  Ti  Ti2       1.0  0.532908022403717  0.2518985867500305  0.7393829822540283  1.0000
  O   O6        1.0  0.03234592080116272  0.2252269387245178  0.7373769879341125  1.0000
  O   O7        1.0  0.5325546264648438  0.5814865827560425  0.8355510234832764  1.0000
