data_image222
_chemical_formula_structural       BaTiO2
_chemical_formula_sum              "Ba1 Ti1 O2"
_cell_length_a       3.3153870513861134
_cell_length_b       3.314552717254236
_cell_length_c       6.283576488494873
_cell_angle_alpha    74.73883877871273
_cell_angle_beta     74.72377100613734
_cell_angle_gamma    60.002803571934386

_space_group_name_H-M_alt    "P 1"
_space_group_IT_number       1

loop_
  _space_group_symop_operation_xyz
  'x, y, z'

loop_
  _atom_site_type_symbol
  _atom_site_label
  _atom_site_symmetry_multiplicity
  _atom_site_fract_x
  _atom_site_fract_y
  _atom_site_fract_z
  _atom_site_occupancy
  Ba  Ba1       1.0  0.9567686915397644  0.23975628614425656  0.0099716437980533  1.0000
  Ti  Ti1       1.0  0.45711472630500793  0.739112377166748  0.5081314444541931  1.0000
  O   O1        1.0  0.18054074048995972  0.46391767263412476  0.3388676941394806  1.0000
  O   O2        1.0  0.7327983975410461  0.01615293323993683  0.6793999671936035  1.0000
