data_image217
_chemical_formula_structural       Ba2TiO2TiO4
_chemical_formula_sum              "Ba2 Ti2 O6"
_cell_length_a       6.174037557590668
_cell_length_b       5.4464115974688445
_cell_length_c       6.0023698806762695
_cell_angle_alpha    65.29871938352792
_cell_angle_beta     73.07464283122684
_cell_angle_gamma    61.91763736382071

_space_group_name_H-M_alt    "P 1"
_space_group_IT_number       1

loop_
  _space_group_symop_operation_xyz
  'x, y, z'

loop_
  _atom_site_type_symbol
  _atom_site_label
  _atom_site_symmetry_multiplicity
  _atom_site_fract_x
  _atom_site_fract_y
  _atom_site_fract_z
  _atom_site_occupancy
  Ba  Ba1       1.0  0.05351421236991882  0.9050332903862  0.9920905232429504  1.0000
  Ba  Ba2       1.0  0.3348859548568726  0.12167973071336745  0.27414360642433167  1.0000
  Ti  Ti1       1.0  0.7701506018638611  0.6860235333442688  0.7109293937683105  1.0000
  O   O1        1.0  0.9116470813751221  0.3821581304073334  0.5362013578414917  1.0000
  O   O2        1.0  0.991067111492157  0.4661478400230407  0.9341124892234802  1.0000
  Ti  Ti2       1.0  0.617014467716217  0.3394157290458679  0.5563462972640991  1.0000
  O   O3        1.0  0.47569248080253596  0.6437790989875793  0.7302083969116211  1.0000
  O   O4        1.0  0.39629754424095154  0.560161828994751  0.3329874575138092  1.0000
  O   O5        1.0  0.7958821654319763  0.9997939467430114  0.41782066226005554  1.0000
  O   O6        1.0  0.592770516872406  0.025420447811484337  0.8496905565261841  1.0000
