data_image1011
_chemical_formula_structural       OBaTiO2
_chemical_formula_sum              "O3 Ba1 Ti1"
_cell_length_a       4.0699458425406885
_cell_length_b       4.086069255894105
_cell_length_c       4.086118698120117
_cell_angle_alpha    89.6181402704228
_cell_angle_beta     89.69991813511558
_cell_angle_gamma    89.72540157687018

_space_group_name_H-M_alt    "P 1"
_space_group_IT_number       1

loop_
  _space_group_symop_operation_xyz
  'x, y, z'

loop_
  _atom_site_type_symbol
  _atom_site_label
  _atom_site_symmetry_multiplicity
  _atom_site_fract_x
  _atom_site_fract_y
  _atom_site_fract_z
  _atom_site_occupancy
  O   O1        1.0  0.21469511091709137  0.21896867454051971  0.42019253969192505  1.0000
  Ba  Ba1       1.0  0.24221441149711612  0.7366271018981934  0.938319742679596  1.0000
  Ti  Ti1       1.0  0.7580128312110901  0.25189530849456787  0.45389723777770996  1.0000
  O   O2        1.0  0.7269428968429565  0.2195352166891098  0.9100143909454346  1.0000
  O   O3        1.0  0.7264979481697083  0.7081460952758789  0.4197049736976623  1.0000
