data_image770
_chemical_formula_structural       OBaOBaTi2O4
_chemical_formula_sum              "O6 Ba2 Ti2"
_cell_length_a       5.730406872979449
_cell_length_b       5.731344023688225
_cell_length_c       5.73049783706665
_cell_angle_alpha    60.008505449600435
_cell_angle_beta     59.99827473621072
_cell_angle_gamma    59.98899846495187

_space_group_name_H-M_alt    "P 1"
_space_group_IT_number       1

loop_
  _space_group_symop_operation_xyz
  'x, y, z'

loop_
  _atom_site_type_symbol
  _atom_site_label
  _atom_site_symmetry_multiplicity
  _atom_site_fract_x
  _atom_site_fract_y
  _atom_site_fract_z
  _atom_site_occupancy
  O   O1        1.0  0.49484241008758545  0.7791262269020081  0.7599813342094421  1.0000
  Ba  Ba1       1.0  0.9945447444915771  0.2791597545146942  0.7599402666091919  1.0000
  O   O2        1.0  0.4946439266204834  0.2793574035167694  0.7602123022079468  1.0000
  Ba  Ba2       1.0  0.4946983754634857  0.779441773891449  0.26000744104385376  1.0000
  Ti  Ti1       1.0  0.24471154808998113  0.5293170809745789  0.009936792775988579  1.0000
  Ti  Ti2       1.0  0.7446317076683044  0.029492748901247978  0.5095673799514772  1.0000
  O   O3        1.0  0.9946481585502625  0.27905645966529846  0.2601228952407838  1.0000
  O   O4        1.0  0.9946479201316833  0.7792002558708191  0.7600892186164858  1.0000
  O   O5        1.0  0.9949517846107483  0.7788195610046387  0.2599494457244873  1.0000
  O   O6        1.0  0.49434876441955566  0.2795189917087555  0.2599736154079437  1.0000
