data_image413
_chemical_formula_structural       Ba2TiO4
_chemical_formula_sum              "Ba2 Ti1 O4"
_cell_length_a       4.0412187531074455
_cell_length_b       4.041297025462676
_cell_length_c       7.318623065948486
_cell_angle_alpha    106.04448505631507
_cell_angle_beta     105.99006181878961
_cell_angle_gamma    89.99357506227584

_space_group_name_H-M_alt    "P 1"
_space_group_IT_number       1

loop_
  _space_group_symop_operation_xyz
  'x, y, z'

loop_
  _atom_site_type_symbol
  _atom_site_label
  _atom_site_symmetry_multiplicity
  _atom_site_fract_x
  _atom_site_fract_y
  _atom_site_fract_z
  _atom_site_occupancy
  Ba  Ba1       1.0  0.8917981386184692  0.38222068548202515  0.6539379358291626  1.0000
  Ba  Ba2       1.0  0.604753315448761  0.09474585950374605  0.08006356656551361  1.0000
  Ti  Ti1       1.0  0.24819336831569672  0.7383308410644531  0.36723700165748596  1.0000
  O   O1        1.0  0.10084403306245804  0.5909371376037599  0.07212369143962861  1.0000
  O   O2        1.0  0.748299241065979  0.7387124300003052  0.367444783449173  1.0000
  O   O3        1.0  0.3960624039173126  0.8864486217498779  0.6625354290008545  1.0000
  O   O4        1.0  0.2483077049255371  0.23849003016948703  0.3672800362110138  1.0000
