data_image51
_chemical_formula_structural       O2Ba2OTiBaTiO2BaO4
_chemical_formula_sum              "O9 Ba4 Ti2"
_cell_length_a       4.384357600171451
_cell_length_b       7.1384607065905055
_cell_length_c       9.107535362243652
_cell_angle_alpha    82.02641908009858
_cell_angle_beta     76.98760510254714
_cell_angle_gamma    72.50124077867848

_space_group_name_H-M_alt    "P 1"
_space_group_IT_number       1

loop_
  _space_group_symop_operation_xyz
  'x, y, z'

loop_
  _atom_site_type_symbol
  _atom_site_label
  _atom_site_symmetry_multiplicity
  _atom_site_fract_x
  _atom_site_fract_y
  _atom_site_fract_z
  _atom_site_occupancy
  O   O1        1.0  0.7964598536491394  0.8365256190299988  0.9982431530952454  1.0000
  O   O2        1.0  0.3096024692058563  0.3029594123363495  0.3064655065536499  1.0000
  Ba  Ba1       1.0  0.5930583477020264  0.9318501949310303  0.32050472497940063  1.0000
  Ba  Ba2       1.0  0.7881685495376587  0.4664974808692932  0.16128014028072357  1.0000
  O   O3        1.0  0.4545501470565796  0.6137974262237549  0.8780561685562134  1.0000
  Ti  Ti1       1.0  0.20350433886051178  0.8604629039764404  0.008759712800383568  1.0000
  Ba  Ba3       1.0  0.6124827265739441  0.196562722325325  0.8251826763153076  1.0000
  Ti  Ti2       1.0  0.02171451598405838  0.3086535930633545  0.48941606283187866  1.0000
  O   O4        1.0  0.23135875165462494  0.7569177746772766  0.20095087587833405  1.0000
  O   O5        1.0  0.7095274925231934  0.5456628799438477  0.470465749502182  1.0000
  Ba  Ba4       1.0  0.037856828421354294  0.6964714527130127  0.6707679629325867  1.0000
  O   O6        1.0  0.1458290368318558  0.31483370065689087  0.6652719974517822  1.0000
  O   O7        1.0  0.08107437193393707  0.12846504151821136  0.023379368707537655  1.0000
  O   O8        1.0  0.9297805428504943  0.0695681944489479  0.5112237334251404  1.0000
  O   O9        1.0  0.4058774411678314  0.832374632358551  0.7909579873085022  1.0000
