data_image941
_chemical_formula_structural       BaO3BaO3Ti
_chemical_formula_sum              "Ba2 O6 Ti1"
_cell_length_a       4.229175480013529
_cell_length_b       6.046815611752159
_cell_length_c       6.313429832458496
_cell_angle_alpha    118.47958933133654
_cell_angle_beta     99.72426606849918
_cell_angle_gamma    83.15124841346127

_space_group_name_H-M_alt    "P 1"
_space_group_IT_number       1

loop_
  _space_group_symop_operation_xyz
  'x, y, z'

loop_
  _atom_site_type_symbol
  _atom_site_label
  _atom_site_symmetry_multiplicity
  _atom_site_fract_x
  _atom_site_fract_y
  _atom_site_fract_z
  _atom_site_occupancy
  Ba  Ba1       1.0  0.2442276030778885  0.027453429996967316  0.5908650755882263  1.0000
  O   O1        1.0  0.6856923699378967  0.6198976039886475  0.3401715457439422  1.0000
  O   O2        1.0  0.14810197055339813  0.1087532490491867  0.04249324277043342  1.0000
  O   O3        1.0  0.6764874458312988  0.12985526025295258  0.3672649264335633  1.0000
  Ba  Ba2       1.0  0.7835991382598877  0.715192437171936  0.9523618817329408  1.0000
  O   O4        1.0  0.26543423533439636  0.5408265590667725  0.6009716391563416  1.0000
  O   O5        1.0  0.36897724866867065  0.601991832256317  0.17116114497184748  1.0000
  O   O6        1.0  0.84298175573349  0.14598360657691956  0.915540099143982  1.0000
  Ti  Ti1       1.0  0.4254172146320343  0.36887645721435547  0.3194900453090668  1.0000
