data_image674
_chemical_formula_structural       TiOTiBaOBa2O5
_chemical_formula_sum              "Ti2 O7 Ba3"
_cell_length_a       4.08660934058233
_cell_length_b       4.083129030775126
_cell_length_c       11.086189270019531
_cell_angle_alpha    100.58265696088742
_cell_angle_beta     100.61520922263414
_cell_angle_gamma    89.71753323090924

_space_group_name_H-M_alt    "P 1"
_space_group_IT_number       1

loop_
  _space_group_symop_operation_xyz
  'x, y, z'

loop_
  _atom_site_type_symbol
  _atom_site_label
  _atom_site_symmetry_multiplicity
  _atom_site_fract_x
  _atom_site_fract_y
  _atom_site_fract_z
  _atom_site_occupancy
  Ti  Ti1       1.0  0.1258460432291031  0.8788115978240967  0.4257262647151947  1.0000
  O   O1        1.0  0.6612687110900879  0.904988169670105  0.42610618472099304  1.0000
  Ti  Ti2       1.0  0.313274621963501  0.0697077214717865  0.8057701587677002  1.0000
  Ba  Ba1       1.0  0.551223874092102  0.3062001168727875  0.2502251863479614  1.0000
  O   O2        1.0  0.24899844825267792  0.004019186366349459  0.6156882047653198  1.0000
  Ba  Ba2       1.0  0.9155891537666321  0.6711686849594117  0.9801302552223206  1.0000
  Ba  Ba3       1.0  0.7328029870986938  0.4882486164569855  0.6149101853370667  1.0000
  O   O3        1.0  0.33942463994026184  0.6061205863952637  0.8044118881225586  1.0000
  O   O4        1.0  0.8508945107460022  0.09441982954740524  0.8040406107902527  1.0000
  O   O5        1.0  0.43307849764823914  0.18976065516471866  0.9870588183403015  1.0000
  O   O6        1.0  0.1491396129131317  0.4170435667037964  0.4259341061115265  1.0000
  O   O7        1.0  0.06415992230176926  0.8193653225898743  0.24404950439929962  1.0000
