data_image709
_chemical_formula_structural       Ba2TiOTiBaO6
_chemical_formula_sum              "Ba3 Ti2 O7"
_cell_length_a       4.073254415175581
_cell_length_b       4.065112914519412
_cell_length_c       11.107632637023926
_cell_angle_alpha    100.64931227791527
_cell_angle_beta     100.5717556119156
_cell_angle_gamma    90.16023195985322

_space_group_name_H-M_alt    "P 1"
_space_group_IT_number       1

loop_
  _space_group_symop_operation_xyz
  'x, y, z'

loop_
  _atom_site_type_symbol
  _atom_site_label
  _atom_site_symmetry_multiplicity
  _atom_site_fract_x
  _atom_site_fract_y
  _atom_site_fract_z
  _atom_site_occupancy
  Ba  Ba1       1.0  0.4702428877353668  0.6296834349632263  0.05581678450107574  1.0000
  Ba  Ba2       1.0  0.8367683291435242  0.9854156970977783  0.7879823446273804  1.0000
  Ti  Ti1       1.0  0.2320438027381897  0.37968432903289795  0.6130263209342957  1.0000
  O   O1        1.0  0.257597416639328  0.9162413477897644  0.6111230254173279  1.0000
  Ti  Ti2       1.0  0.04445098340511322  0.2320701628923416  0.23164831101894376  1.0000
  Ba  Ba3       1.0  0.6506397128105164  0.8075111508369446  0.42237246036529535  1.0000
  O   O2        1.0  0.16657552123069763  0.3084198236465454  0.42234948277473444  1.0000
  O   O3        1.0  0.5795240998268127  0.20951031148433685  0.23323725163936612  1.0000
  O   O4        1.0  0.06900368630886078  0.7013939023017883  0.23340642452239987  1.0000
  O   O5        1.0  0.351992666721344  0.500040590763092  0.7937502264976501  1.0000
  O   O6        1.0  0.7692157626152039  0.40697330236434937  0.6109436750411987  1.0000
  O   O7        1.0  0.9790546894073486  0.11702238768339157  0.0507812425494194  1.0000
