data_image661
_chemical_formula_structural       OTiBaO
_chemical_formula_sum              "O2 Ti1 Ba1"
_cell_length_a       3.2631057860772037
_cell_length_b       3.2630275608572745
_cell_length_c       7.123158931732178
_cell_angle_alpha    76.6439368946475
_cell_angle_beta     76.62462800164606
_cell_angle_gamma    59.832136024100976

_space_group_name_H-M_alt    "P 1"
_space_group_IT_number       1

loop_
  _space_group_symop_operation_xyz
  'x, y, z'

loop_
  _atom_site_type_symbol
  _atom_site_label
  _atom_site_symmetry_multiplicity
  _atom_site_fract_x
  _atom_site_fract_y
  _atom_site_fract_z
  _atom_site_occupancy
  O   O1        1.0  0.23739075660705566  0.8190775513648987  0.8584169149398803  1.0000
  Ti  Ti1       1.0  0.8587797284126282  0.44086334109306335  0.9933659434318541  1.0000
  Ba  Ba1       1.0  0.35891506075859064  0.9404688477516174  0.4935502111911773  1.0000
  O   O2        1.0  0.4802108407020569  0.06244761124253274  0.12795871496200562  1.0000
