data_image565
_chemical_formula_structural       OBa2OTiO2
_chemical_formula_sum              "O4 Ba2 Ti1"
_cell_length_a       4.045444146082327
_cell_length_b       4.045712433685267
_cell_length_c       7.3202433586120605
_cell_angle_alpha    105.94483934215502
_cell_angle_beta     106.00804539525608
_cell_angle_gamma    89.98578885343619

_space_group_name_H-M_alt    "P 1"
_space_group_IT_number       1

loop_
  _space_group_symop_operation_xyz
  'x, y, z'

loop_
  _atom_site_type_symbol
  _atom_site_label
  _atom_site_symmetry_multiplicity
  _atom_site_fract_x
  _atom_site_fract_y
  _atom_site_fract_z
  _atom_site_occupancy
  O   O1        1.0  0.4290659725666046  0.29722234606742853  0.7306554913520812  1.0000
  Ba  Ba1       1.0  0.22018493711948395  0.08846960961818695  0.3130093514919281  1.0000
  Ba  Ba2       1.0  0.9333316087722778  0.8018522262573241  0.7390885353088378  1.0000
  O   O2        1.0  0.07688423991203308  0.4450209140777588  0.02606626972556114  1.0000
  Ti  Ti1       1.0  0.5767973065376282  0.4449745416641235  0.02608019113540649  1.0000
  O   O3        1.0  0.5767063498497009  0.9451411962509154  0.026003282517194744  1.0000
  O   O4        1.0  0.7247746586799622  0.5933923125267029  0.3217678666114807  1.0000
