data_image801
_chemical_formula_structural       OTiBaTiBaTiO2TiBaO6
_chemical_formula_sum              "O9 Ti4 Ba3"
_cell_length_a       3.913672402946493
_cell_length_b       6.579741888205839
_cell_length_c       9.192234992980957
_cell_angle_alpha    97.83035032215598
_cell_angle_beta     90.01804786434884
_cell_angle_gamma    90.04561451027739

_space_group_name_H-M_alt    "P 1"
_space_group_IT_number       1

loop_
  _space_group_symop_operation_xyz
  'x, y, z'

loop_
  _atom_site_type_symbol
  _atom_site_label
  _atom_site_symmetry_multiplicity
  _atom_site_fract_x
  _atom_site_fract_y
  _atom_site_fract_z
  _atom_site_occupancy
  O   O1        1.0  0.4515548646450043  0.5729061961174011  0.6637536883354187  1.0000
  Ti  Ti1       1.0  0.45207539200782776  0.8785680532455445  0.593192994594574  1.0000
  Ba  Ba1       1.0  0.9522607326507568  0.46393606066703796  0.44412529468536377  1.0000
  Ti  Ti2       1.0  0.45234325528144836  0.5966766476631165  0.1600305289030075  1.0000
  Ba  Ba2       1.0  0.9521599411964417  0.7170128226280212  0.8671332001686096  1.0000
  Ti  Ti3       1.0  0.45178520679473877  0.02788829803466797  0.30908602476119995  1.0000
  O   O2        1.0  0.45224595069885254  0.7515650391578674  0.37281450629234314  1.0000
  O   O3        1.0  0.4519437253475189  0.4446700215339661  0.9374028444290161  1.0000
  Ti  Ti4       1.0  0.4530200958251953  0.30874225497245794  0.7303518652915955  1.0000
  Ba  Ba3       1.0  0.9523453712463379  0.19313879311084747  0.02867232821881771  1.0000
  O   O4        1.0  0.9522160291671753  0.571447491645813  0.15640002489089966  1.0000
  O   O5        1.0  0.9521855115890503  0.8435178399086  0.5983128547668458  1.0000
  O   O6        1.0  0.45208534598350525  0.038003843277692795  0.7961741089820862  1.0000
  O   O7        1.0  0.45224112272262573  0.29739177227020264  0.23801268637180328  1.0000
  O   O8        1.0  0.45223256945610046  0.16092970967292788  0.5201976299285889  1.0000
  O   O9        1.0  0.4517131745815277  0.8843082189559938  0.10677800327539447  1.0000
