data_image1005
_chemical_formula_structural       TiBa2OBaO
_chemical_formula_sum              "Ti1 Ba3 O2"
_cell_length_a       4.057198665042202
_cell_length_b       4.063596082488238
_cell_length_c       11.20456600189209
_cell_angle_alpha    90.17697271335669
_cell_angle_beta     90.13407229489219
_cell_angle_gamma    90.02576597717783

_space_group_name_H-M_alt    "P 1"
_space_group_IT_number       1

loop_
  _space_group_symop_operation_xyz
  'x, y, z'

loop_
  _atom_site_type_symbol
  _atom_site_label
  _atom_site_symmetry_multiplicity
  _atom_site_fract_x
  _atom_site_fract_y
  _atom_site_fract_z
  _atom_site_occupancy
  Ti  Ti1       1.0  0.289701908826828  0.05356577411293983  0.6220014691352844  1.0000
  Ba  Ba1       1.0  0.789544403553009  0.5529997944831848  0.4549214541912079  1.0000
  Ba  Ba2       1.0  0.2896820604801178  0.05346491187810897  0.12220840901136398  1.0000
  O   O1        1.0  0.7898615002632141  0.05369774997234344  0.6220929026603699  1.0000
  Ba  Ba3       1.0  0.789742648601532  0.5534228682518005  0.7894733548164368  1.0000
  O   O2        1.0  0.2895459234714508  0.5534856915473937  0.6221263408660889  1.0000
