data_image742
_chemical_formula_structural       OBaO
_chemical_formula_sum              "O2 Ba1"
_cell_length_a       3.866712699769504
_cell_length_b       3.8682224727332417
_cell_length_c       4.444758892059326
_cell_angle_alpha    115.8325080407833
_cell_angle_beta     115.72187291069896
_cell_angle_gamma    89.83975894345862

_space_group_name_H-M_alt    "P 1"
_space_group_IT_number       1

loop_
  _space_group_symop_operation_xyz
  'x, y, z'

loop_
  _atom_site_type_symbol
  _atom_site_label
  _atom_site_symmetry_multiplicity
  _atom_site_fract_x
  _atom_site_fract_y
  _atom_site_fract_z
  _atom_site_occupancy
  O   O1        1.0  0.1917901188135147  0.906158447265625  0.4786316752433777  1.0000
  Ba  Ba1       1.0  0.5844758152961731  0.29864200949668884  0.26413917541503906  1.0000
  O   O2        1.0  0.9767036437988281  0.6906104683876038  0.04767446592450142  1.0000
