data_image909
_chemical_formula_structural       BaOBaTiO3
_chemical_formula_sum              "Ba2 O4 Ti1"
_cell_length_a       4.036548146828552
_cell_length_b       4.03882889378914
_cell_length_c       7.335422515869141
_cell_angle_alpha    105.98050701810017
_cell_angle_beta     105.9822958511706
_cell_angle_gamma    90.03189915135795

_space_group_name_H-M_alt    "P 1"
_space_group_IT_number       1

loop_
  _space_group_symop_operation_xyz
  'x, y, z'

loop_
  _atom_site_type_symbol
  _atom_site_label
  _atom_site_symmetry_multiplicity
  _atom_site_fract_x
  _atom_site_fract_y
  _atom_site_fract_z
  _atom_site_occupancy
  Ba  Ba1       1.0  0.9617739915847777  0.012934095226228237  0.422467440366745  1.0000
  O   O1        1.0  0.6049474477767944  0.15661469101905823  0.7089875936508179  1.0000
  Ba  Ba2       1.0  0.24885448813438413  0.2998615503311157  0.9955886602401733  1.0000
  Ti  Ti1       1.0  0.6054002642631531  0.6564792990684509  0.7090610861778259  1.0000
  O   O2        1.0  0.457510232925415  0.5084971785545349  0.4139453172683716  1.0000
  O   O3        1.0  0.7532163858413695  0.8044790029525756  0.0044335126876831055  1.0000
  O   O4        1.0  0.1052056849002838  0.6564258933067322  0.7090034484863281  1.0000
