data_image103
_chemical_formula_structural       Ba2O2TiBaTiO4
_chemical_formula_sum              "Ba3 O6 Ti2"
_cell_length_a       4.039651860767257
_cell_length_b       4.032607107735806
_cell_length_c       11.249122619628906
_cell_angle_alpha    100.28805705861693
_cell_angle_beta     100.34432415543313
_cell_angle_gamma    89.99811061819415

_space_group_name_H-M_alt    "P 1"
_space_group_IT_number       1

loop_
  _space_group_symop_operation_xyz
  'x, y, z'

loop_
  _atom_site_type_symbol
  _atom_site_label
  _atom_site_symmetry_multiplicity
  _atom_site_fract_x
  _atom_site_fract_y
  _atom_site_fract_z
  _atom_site_occupancy
  Ba  Ba1       1.0  0.8677508234977722  0.7848287820816041  0.365620881319046  1.0000
  Ba  Ba2       1.0  0.6892041563987732  0.6064708232879639  0.00853995606303215  1.0000
  O   O1        1.0  0.7784481644630432  0.1957484483718872  0.18597660958766937  1.0000
  O   O2        1.0  0.3790586590766907  0.29620030522346497  0.3882204592227936  1.0000
  Ti  Ti1       1.0  0.46686339378356934  0.3832893371582031  0.5627048015594482  1.0000
  Ba  Ba3       1.0  0.056947261095047  0.9738737940788269  0.7438248991966248  1.0000
  Ti  Ti2       1.0  0.2742750644683838  0.19135527312755585  0.17738647758960724  1.0000
  O   O3        1.0  0.18361738324165344  0.10046788305044174  0.9969987869262695  1.0000
  O   O4        1.0  0.46715861558914185  0.8842591047286987  0.5638776421546936  1.0000
  O   O5        1.0  0.5571065545082092  0.47427138686180115  0.7438031435012817  1.0000
  O   O6        1.0  0.2776832580566406  0.6947927474975586  0.18480101227760315  1.0000
