data_image723
_chemical_formula_structural       BaOTiBaO2
_chemical_formula_sum              "Ba2 O3 Ti1"
_cell_length_a       4.02403106117176
_cell_length_b       3.9800077783213954
_cell_length_c       7.37778377532959
_cell_angle_alpha    105.81273687604528
_cell_angle_beta     105.91962874386017
_cell_angle_gamma    90.1364493327708

_space_group_name_H-M_alt    "P 1"
_space_group_IT_number       1

loop_
  _space_group_symop_operation_xyz
  'x, y, z'

loop_
  _atom_site_type_symbol
  _atom_site_label
  _atom_site_symmetry_multiplicity
  _atom_site_fract_x
  _atom_site_fract_y
  _atom_site_fract_z
  _atom_site_occupancy
  Ba  Ba1       1.0  0.6124399304389954  0.5223540663719177  0.9590151906013489  1.0000
  O   O1        1.0  0.8198387622833253  0.7313206791877747  0.37396490573883057  1.0000
  Ti  Ti1       1.0  0.9660246968269349  0.8765090107917786  0.6661349534988403  1.0000
  Ba  Ba2       1.0  0.3196523189544678  0.23062922060489655  0.373452752828598  1.0000
  O   O2        1.0  0.4660145044326783  0.8762832283973694  0.665622889995575  1.0000
  O   O3        1.0  0.11178557574748994  0.022252550348639488  0.9573433995246887  1.0000
