data_image845
_chemical_formula_structural       O2BaOTiOBaO2Ti
_chemical_formula_sum              "O6 Ba2 Ti2"
_cell_length_a       4.128176983603298
_cell_length_b       4.124393022576529
_cell_length_c       7.987153053283691
_cell_angle_alpha    89.99240050407427
_cell_angle_beta     90.02164054545305
_cell_angle_gamma    89.39370708761496

_space_group_name_H-M_alt    "P 1"
_space_group_IT_number       1

loop_
  _space_group_symop_operation_xyz
  'x, y, z'

loop_
  _atom_site_type_symbol
  _atom_site_label
  _atom_site_symmetry_multiplicity
  _atom_site_fract_x
  _atom_site_fract_y
  _atom_site_fract_z
  _atom_site_occupancy
  O   O1        1.0  0.03301459550857544  0.03422270342707634  0.8339442014694214  1.0000
  O   O2        1.0  0.03299134597182274  0.03346480056643486  0.33446091413497925  1.0000
  Ba  Ba1       1.0  0.5511652827262878  0.07159946113824844  0.5842437148094177  1.0000
  O   O3        1.0  0.5152615308761597  0.552592396736145  0.33499667048454285  1.0000
  Ti  Ti1       1.0  0.06871645152568817  0.588489830493927  0.8349757194519043  1.0000
  O   O4        1.0  0.02428087219595909  0.5435178279876709  0.5843592882156372  1.0000
  Ba  Ba2       1.0  0.5520357489585876  0.07189690321683884  0.08449877053499222  1.0000
  O   O5        1.0  0.5144838690757751  0.5530426502227783  0.834590494632721  1.0000
  O   O6        1.0  0.02566203847527504  0.545124351978302  0.08476470410823822  1.0000
  Ti  Ti2       1.0  0.06796121597290039  0.5886715054512024  0.33446431159973145  1.0000
