data_image778
_chemical_formula_structural       BaO2Ba2OBa2OTiO2
_chemical_formula_sum              "Ba5 O6 Ti1"
_cell_length_a       6.5036618626787766
_cell_length_b       6.50327396458662
_cell_length_c       7.204866409301758
_cell_angle_alpha    90.00081529695004
_cell_angle_beta     89.98475752151127
_cell_angle_gamma    119.95767163484594

_space_group_name_H-M_alt    "P 1"
_space_group_IT_number       1

loop_
  _space_group_symop_operation_xyz
  'x, y, z'

loop_
  _atom_site_type_symbol
  _atom_site_label
  _atom_site_symmetry_multiplicity
  _atom_site_fract_x
  _atom_site_fract_y
  _atom_site_fract_z
  _atom_site_occupancy
  Ba  Ba1       1.0  0.7269556522369385  0.1687614619731903  0.12821707129478455  1.0000
  O   O1        1.0  0.6540076732635498  0.8359141945838929  0.37561798095703125  1.0000
  O   O2        1.0  0.7764673829078674  0.5526586771011353  0.8760570883750916  1.0000
  Ba  Ba2       1.0  0.059646323323249824  0.8354626297950745  0.3758503198623657  1.0000
  Ba  Ba3       1.0  0.7271183729171753  0.16934829950332642  0.6234674453735352  1.0000
  O   O3        1.0  0.3434648811817169  0.8374014496803284  0.8760547041893005  1.0000
  Ba  Ba4       1.0  0.3938562870025636  0.5028396248817445  0.623197615146637  1.0000
  Ba  Ba5       1.0  0.3935900628566742  0.5030274391174316  0.12866877019405365  1.0000
  O   O4        1.0  0.4672158062458039  0.2421381324529648  0.3761617839336395  1.0000
  Ti  Ti1       1.0  0.05975494533777244  0.8348684310913087  0.8758900761604309  1.0000
  O   O5        1.0  0.06103997305035592  0.11702729761600494  0.8754944205284119  1.0000
  O   O6        1.0  0.060301549732685096  0.43010553717613226  0.3756939470767975  1.0000
