data_image739
_chemical_formula_structural       BaTi2BaO6
_chemical_formula_sum              "Ba2 Ti2 O6"
_cell_length_a       5.411084524324064
_cell_length_b       5.413921564327287
_cell_length_c       6.456312656402588
_cell_angle_alpha    65.42013263838977
_cell_angle_beta     65.422773514251
_cell_angle_gamma    60.11302852656195

_space_group_name_H-M_alt    "P 1"
_space_group_IT_number       1

loop_
  _space_group_symop_operation_xyz
  'x, y, z'

loop_
  _atom_site_type_symbol
  _atom_site_label
  _atom_site_symmetry_multiplicity
  _atom_site_fract_x
  _atom_site_fract_y
  _atom_site_fract_z
  _atom_site_occupancy
  Ba  Ba1       1.0  0.1453783214092255  0.9154219031333923  0.7914750576019287  1.0000
  Ti  Ti1       1.0  0.6834968924522399  0.45367756485939026  0.1762191504240036  1.0000
  Ti  Ti2       1.0  0.36413639783859253  0.13475669920444489  0.13518451154232025  1.0000
  Ba  Ba2       1.0  0.9022547006607055  0.6730997562408447  0.5197660923004152  1.0000
  O   O1        1.0  0.09318061918020248  0.36967501044273376  0.9362565279006958  1.0000
  O   O2        1.0  0.9546158909797667  0.21847859025001526  0.3748108744621277  1.0000
  O   O3        1.0  0.5992064476013184  0.8630918860435486  0.9365326166152954  1.0000
  O   O4        1.0  0.44859680533409113  0.7252098321914673  0.3746284544467926  1.0000
  O   O5        1.0  0.44794043898582453  0.21928411722183228  0.37560147047042847  1.0000
  O   O6        1.0  0.5997361540794373  0.36950987577438354  0.9352530837059021  1.0000
