data_image666
_chemical_formula_structural       BaTiO3
_chemical_formula_sum              "Ba1 Ti1 O3"
_cell_length_a       4.08814086343044
_cell_length_b       4.098010782990879
_cell_length_c       4.088521957397461
_cell_angle_alpha    89.69532144820187
_cell_angle_beta     90.25481639491359
_cell_angle_gamma    90.33589070932618

_space_group_name_H-M_alt    "P 1"
_space_group_IT_number       1

loop_
  _space_group_symop_operation_xyz
  'x, y, z'

loop_
  _atom_site_type_symbol
  _atom_site_label
  _atom_site_symmetry_multiplicity
  _atom_site_fract_x
  _atom_site_fract_y
  _atom_site_fract_z
  _atom_site_occupancy
  Ba  Ba1       1.0  0.6375763416290283  0.778987467288971  0.13014177978038788  1.0000
  Ti  Ti1       1.0  0.12306925654411316  0.2960650324821472  0.6493760347366333  1.0000
  O   O1        1.0  0.6673307418823242  0.26017922163009644  0.6113573312759399  1.0000
  O   O2        1.0  0.15647968649864197  0.7483422160148621  0.6125726699829102  1.0000
  O   O3        1.0  0.15600937604904175  0.26075711846351624  0.09966518729925156  1.0000
