data_image246
_chemical_formula_structural       BaTiO3Ba
_chemical_formula_sum              "Ba2 Ti1 O3"
_cell_length_a       3.963114587911878
_cell_length_b       3.9598934422235117
_cell_length_c       9.11053466796875
_cell_angle_alpha    102.3472426679265
_cell_angle_beta     102.50168116477285
_cell_angle_gamma    90.0716034754219

_space_group_name_H-M_alt    "P 1"
_space_group_IT_number       1

loop_
  _space_group_symop_operation_xyz
  'x, y, z'

loop_
  _atom_site_type_symbol
  _atom_site_label
  _atom_site_symmetry_multiplicity
  _atom_site_fract_x
  _atom_site_fract_y
  _atom_site_fract_z
  _atom_site_occupancy
  Ba  Ba1       1.0  0.145680770277977  0.012650405988097193  0.7345321774482727  1.0000
  Ti  Ti1       1.0  0.5232966542243958  0.389964908361435  0.49180683493614197  1.0000
  O   O1        1.0  0.41810670495033264  0.2870657742023468  0.28424298763275146  1.0000
  O   O2        1.0  0.038282666355371475  0.4050357043743134  0.5232481956481934  1.0000
  O   O3        1.0  0.537634015083313  0.9060900807380677  0.5243183970451355  1.0000
  Ba  Ba2       1.0  0.9044678211212158  0.7720085978507997  0.25624656677246094  1.0000
