data_image409
_chemical_formula_structural       BaTiBaOTiO5
_chemical_formula_sum              "Ba2 Ti2 O6"
_cell_length_a       5.724485137422365
_cell_length_b       7.230049111719954
_cell_length_c       5.429565906524658
_cell_angle_alpha    89.92510264815692
_cell_angle_beta     89.96335854180299
_cell_angle_gamma    117.75080583182134

_space_group_name_H-M_alt    "P 1"
_space_group_IT_number       1

loop_
  _space_group_symop_operation_xyz
  'x, y, z'

loop_
  _atom_site_type_symbol
  _atom_site_label
  _atom_site_symmetry_multiplicity
  _atom_site_fract_x
  _atom_site_fract_y
  _atom_site_fract_z
  _atom_site_occupancy
  Ba  Ba1       1.0  0.8344165086746216  0.16228751838207248  0.7969326376914978  1.0000
  Ti  Ti1       1.0  0.5462115406990051  0.504683256149292  0.7978869676589966  1.0000
  Ba  Ba2       1.0  0.2348695695400239  0.6665054559707643  0.2972809076309204  1.0000
  O   O1        1.0  0.2879643142223358  0.3531947731971741  0.050718583166599274  1.0000
  Ti  Ti2       1.0  0.5225152969360352  0.3236926198005676  0.29703179001808167  1.0000
  O   O2        1.0  0.28766170144081116  0.35074761509895325  0.5462700724601746  1.0000
  O   O3        1.0  0.7814993858337402  0.4775410294532776  0.5481055974960327  1.0000
  O   O4        1.0  0.5582937002182007  0.7540885806083679  0.797217071056366  1.0000
  O   O5        1.0  0.5104129314422607  0.07406716793775558  0.2973158061504364  1.0000
  O   O6        1.0  0.7805219292640686  0.4760698676109314  0.044681575149297714  1.0000
