data_image546
_chemical_formula_structural       TiBaTiOBaO2TiOBaO5
_chemical_formula_sum              "Ti3 Ba3 O9"
_cell_length_a       4.1162948692311945
_cell_length_b       4.116466112038462
_cell_length_c       11.996060371398926
_cell_angle_alpha    89.98968891945421
_cell_angle_beta     89.99634152306277
_cell_angle_gamma    89.50040833147486

_space_group_name_H-M_alt    "P 1"
_space_group_IT_number       1

loop_
  _space_group_symop_operation_xyz
  'x, y, z'

loop_
  _atom_site_type_symbol
  _atom_site_label
  _atom_site_symmetry_multiplicity
  _atom_site_fract_x
  _atom_site_fract_y
  _atom_site_fract_z
  _atom_site_occupancy
  Ti  Ti1       1.0  0.912658154964447  0.3073425889015198  0.48882690072059626  1.0000
  Ba  Ba1       1.0  0.3976251780986786  0.7924202084541322  0.6553583145141602  1.0000
  Ti  Ti2       1.0  0.9122019410133362  0.3086564540863037  0.15538355708122253  1.0000
  O   O1        1.0  0.36331120133399963  0.274029403924942  0.48880046606063837  1.0000
  Ba  Ba2       1.0  0.39460939168930054  0.7894050478935242  0.3224084675312042  1.0000
  O   O2        1.0  0.3611683249473572  0.27214434742927557  0.15631820261478424  1.0000
  O   O3        1.0  0.8797034025192261  0.7568162083625795  0.8220040798187256  1.0000
  Ti  Ti3       1.0  0.9139933586120605  0.3097165524959564  0.8230100870132446  1.0000
  O   O4        1.0  0.8707093000411987  0.2655256688594818  0.6558237075805664  1.0000
  Ba  Ba3       1.0  0.3958840072154999  0.7903937697410583  0.9887529015541076  1.0000
  O   O5        1.0  0.8771027326583862  0.7552911043167114  0.15607251226902008  1.0000
  O   O6        1.0  0.8698135018348694  0.2646951675415039  0.3222467601299286  1.0000
  O   O7        1.0  0.8801131844520569  0.7576043009757996  0.4885253012180328  1.0000
  O   O8        1.0  0.8707506656646729  0.2650195360183716  0.9887787103652953  1.0000
  O   O9        1.0  0.36336106061935425  0.2731218934059143  0.8214607238769531  1.0000
