data_image360
_chemical_formula_structural       OBaO2BaTiO4TiO3Ba2
_chemical_formula_sum              "O10 Ba4 Ti2"
_cell_length_a       4.024289757396009
_cell_length_b       4.015262430231472
_cell_length_c       17.190898895263672
_cell_angle_alpha    89.91332056815295
_cell_angle_beta     89.88734536377636
_cell_angle_gamma    89.85089949438714

_space_group_name_H-M_alt    "P 1"
_space_group_IT_number       1

loop_
  _space_group_symop_operation_xyz
  'x, y, z'

loop_
  _atom_site_type_symbol
  _atom_site_label
  _atom_site_symmetry_multiplicity
  _atom_site_fract_x
  _atom_site_fract_y
  _atom_site_fract_z
  _atom_site_occupancy
  O   O1        1.0  0.33844971656799316  0.8072565793991089  0.8853309154510498  1.0000
  Ba  Ba1       1.0  0.8386002779006958  0.8066272735595703  0.7798625230789185  1.0000
  O   O2        1.0  0.3385508954524994  0.305878221988678  0.668387770652771  1.0000
  O   O3        1.0  0.3376619517803192  0.8059036731719971  0.5452783703804016  1.0000
  Ba  Ba2       1.0  0.8382378220558167  0.8074829578399658  0.06858682632446289  1.0000
  Ti  Ti1       1.0  0.3383369743824005  0.307438850402832  0.9105910062789917  1.0000
  O   O4        1.0  0.8388434648513794  0.3070525527000427  0.8853419423103333  1.0000
  O   O5        1.0  0.3384770452976227  0.807428240776062  0.17428092658519745  1.0000
  O   O6        1.0  0.3382408320903778  0.3072625994682312  0.009010768495500088  1.0000
  O   O7        1.0  0.8386863470077515  0.30747127532958984  0.17391599714756012  1.0000
  Ti  Ti2       1.0  0.33857089281082153  0.3070893883705139  0.5473273396492004  1.0000
  O   O8        1.0  0.3379057049751282  0.30716457962989807  0.7521638870239258  1.0000
  O   O9        1.0  0.3392319083213806  0.307267278432846  0.42258718609809875  1.0000
  O   O10       1.0  0.8375049829483032  0.3064509332180023  0.5452173948287964  1.0000
  Ba  Ba3       1.0  0.3381768465042114  0.30721789598464966  0.2559869587421417  1.0000
  Ba  Ba4       1.0  0.8381121158599854  0.8069085478782653  0.44437429308891296  1.0000
