data_image181
_chemical_formula_structural       BaTiBaTi2BaOTiO2
_chemical_formula_sum              "Ba3 Ti4 O3"
_cell_length_a       3.429132234622962
_cell_length_b       4.57040956868487
_cell_length_c       15.428598403930664
_cell_angle_alpha    95.51829657798294
_cell_angle_beta     96.34664149127451
_cell_angle_gamma    90.07747046366319

_space_group_name_H-M_alt    "P 1"
_space_group_IT_number       1

loop_
  _space_group_symop_operation_xyz
  'x, y, z'

loop_
  _atom_site_type_symbol
  _atom_site_label
  _atom_site_symmetry_multiplicity
  _atom_site_fract_x
  _atom_site_fract_y
  _atom_site_fract_z
  _atom_site_occupancy
  Ba  Ba1       1.0  0.6336289048194885  0.9657025337219239  0.6755189895629883  1.0000
  Ti  Ti1       1.0  0.9586251378059388  0.5171428322792053  0.32183167338371277  1.0000
  Ba  Ba2       1.0  0.232458770275116  0.5184734463691711  0.8785577416419983  1.0000
  Ti  Ti2       1.0  0.5380275249481201  0.582741379737854  0.4779391586780548  1.0000
  Ti  Ti3       1.0  0.03305426239967346  0.08125235140323639  0.46595773100852966  1.0000
  Ba  Ba3       1.0  0.8627141714096069  0.08750489354133607  0.1350279450416565  1.0000
  O   O1        1.0  0.42368170619010925  0.31060993671417236  0.2518327236175537  1.0000
  Ti  Ti4       1.0  0.4667651057243348  0.017341669648885727  0.339249849319458  1.0000
  O   O2        1.0  0.07451224327087402  0.7758877277374268  0.550361156463623  1.0000
  O   O3        1.0  0.6762824654579163  0.4914518892765045  0.7682480216026306  1.0000
