data_image961
_chemical_formula_structural       O3Ba2OTi2
_chemical_formula_sum              "O4 Ba2 Ti2"
_cell_length_a       3.686758762663913
_cell_length_b       4.137659656189557
_cell_length_c       8.89195442199707
_cell_angle_alpha    113.67599867879935
_cell_angle_beta     89.99672401366625
_cell_angle_gamma    90.19769550062965

_space_group_name_H-M_alt    "P 1"
_space_group_IT_number       1

loop_
  _space_group_symop_operation_xyz
  'x, y, z'

loop_
  _atom_site_type_symbol
  _atom_site_label
  _atom_site_symmetry_multiplicity
  _atom_site_fract_x
  _atom_site_fract_y
  _atom_site_fract_z
  _atom_site_occupancy
  O   O1        1.0  0.05248255655169486  0.10522228479385375  0.8864268064498901  1.0000
  O   O2        1.0  0.5507274866104126  0.775930881500244  0.9992161393165588  1.0000
  O   O3        1.0  0.050616327673196786  0.36103370785713196  0.6256612539291382  1.0000
  Ba  Ba1       1.0  0.05135276168584823  0.041224300861358636  0.28047069907188416  1.0000
  Ba  Ba2       1.0  0.5517616271972656  0.8401653766632079  0.6049025654792786  1.0000
  O   O4        1.0  0.5520269274711609  0.5200406312942505  0.2590599060058594  1.0000
  Ti  Ti1       1.0  0.05147083476185798  0.5782194733619689  0.8694385886192322  1.0000
  Ti  Ti2       1.0  0.5513728857040405  0.30299615859985346  0.015323985368013382  1.0000
