data_image346
_chemical_formula_structural       BaTiO2
_chemical_formula_sum              "Ba1 Ti1 O2"
_cell_length_a       4.078289526058208
_cell_length_b       4.036821182742833
_cell_length_c       4.027911186218262
_cell_angle_alpha    90.05296379312296
_cell_angle_beta     90.03953563854193
_cell_angle_gamma    90.01620371349156

_space_group_name_H-M_alt    "P 1"
_space_group_IT_number       1

loop_
  _space_group_symop_operation_xyz
  'x, y, z'

loop_
  _atom_site_type_symbol
  _atom_site_label
  _atom_site_symmetry_multiplicity
  _atom_site_fract_x
  _atom_site_fract_y
  _atom_site_fract_z
  _atom_site_occupancy
  Ba  Ba1       1.0  0.7134994864463806  0.8698367476463318  0.12580923736095428  1.0000
  Ti  Ti1       1.0  0.2140735536813736  0.3694731593132019  0.6258996725082397  1.0000
  O   O1        1.0  0.2134125530719757  0.8701082468032837  0.6259343028068542  1.0000
  O   O2        1.0  0.21347303688526154  0.3695637285709381  0.12564943730831146  1.0000
