data_image875
_chemical_formula_structural       Ba2Ti2O6
_chemical_formula_sum              "Ba2 Ti2 O6"
_cell_length_a       4.251979625169308
_cell_length_b       5.63805884932833
_cell_length_c       5.633318901062012
_cell_angle_alpha    90.15522539481655
_cell_angle_beta     90.05803862377968
_cell_angle_gamma    90.10313836498473

_space_group_name_H-M_alt    "P 1"
_space_group_IT_number       1

loop_
  _space_group_symop_operation_xyz
  'x, y, z'

loop_
  _atom_site_type_symbol
  _atom_site_label
  _atom_site_symmetry_multiplicity
  _atom_site_fract_x
  _atom_site_fract_y
  _atom_site_fract_z
  _atom_site_occupancy
  Ba  Ba1       1.0  0.1473812758922577  0.12977257370948792  0.2191447913646698  1.0000
  Ba  Ba2       1.0  0.1472790539264679  0.6306944489479065  0.7187108993530273  1.0000
  Ti  Ti1       1.0  0.6665700078010559  0.6301822662353516  0.21858012676239014  1.0000
  Ti  Ti2       1.0  0.6656052470207214  0.13007761538028717  0.7194124460220337  1.0000
  O   O1        1.0  0.6118807196617126  0.38050282001495356  0.96916264295578  1.0000
  O   O2        1.0  0.6106269359588623  0.38064494729042053  0.46921730041503906  1.0000
  O   O3        1.0  0.08856724947690964  0.6306028366088867  0.2196304351091385  1.0000
  O   O4        1.0  0.08859618753194809  0.13088566064834595  0.7188996076583862  1.0000
  O   O5        1.0  0.6112403273582458  0.8809084296226501  0.46898719668388367  1.0000
  O   O6        1.0  0.6130449771881104  0.8808988928794861  0.9688128232955933  1.0000
