data_image985
_chemical_formula_structural       TiBaTiBaO4
_chemical_formula_sum              "Ti2 Ba2 O4"
_cell_length_a       3.933301412730957
_cell_length_b       5.919298044163744
_cell_length_c       7.3296074867248535
_cell_angle_alpha    101.81661190811374
_cell_angle_beta     89.94411106700348
_cell_angle_gamma    89.99785099515145

_space_group_name_H-M_alt    "P 1"
_space_group_IT_number       1

loop_
  _space_group_symop_operation_xyz
  'x, y, z'

loop_
  _atom_site_type_symbol
  _atom_site_label
  _atom_site_symmetry_multiplicity
  _atom_site_fract_x
  _atom_site_fract_y
  _atom_site_fract_z
  _atom_site_occupancy
  Ti  Ti1       1.0  0.30877399444580084  0.3981938362121582  0.8706909418106079  1.0000
  Ba  Ba1       1.0  0.31016132235527044  0.12421627342700957  0.3127124607563019  1.0000
  Ti  Ti2       1.0  0.80881005525589  0.5862442255020142  0.14528675377368924  1.0000
  Ba  Ba2       1.0  0.8096405267715455  0.8596166968345641  0.7032761573791504  1.0000
  O   O1        1.0  0.8092627525329591  0.8453750610351562  0.33953824639320374  1.0000
  O   O2        1.0  0.8098989129066468  0.47754946351051325  0.8699808716773986  1.0000
  O   O3        1.0  0.3092710375785828  0.137538343667984  0.6769073009490967  1.0000
  O   O4        1.0  0.3097649812698365  0.5047637224197388  0.14659182727336884  1.0000
