data_image799
_chemical_formula_structural       BaTi2OBaTi2O
_chemical_formula_sum              "Ba2 Ti4 O2"
_cell_length_a       4.164587975059001
_cell_length_b       4.176647686709859
_cell_length_c       9.947019577026367
_cell_angle_alpha    89.99390997600011
_cell_angle_beta     90.0008972593389
_cell_angle_gamma    90.02349835621455

_space_group_name_H-M_alt    "P 1"
_space_group_IT_number       1

loop_
  _space_group_symop_operation_xyz
  'x, y, z'

loop_
  _atom_site_type_symbol
  _atom_site_label
  _atom_site_symmetry_multiplicity
  _atom_site_fract_x
  _atom_site_fract_y
  _atom_site_fract_z
  _atom_site_occupancy
  Ba  Ba1       1.0  0.8927872776985168  0.25790709257125854  0.7175877690315247  1.0000
  Ti  Ti1       1.0  0.3927660286426544  0.7578095197677612  0.5393730998039246  1.0000
  Ti  Ti2       1.0  0.8927149772644043  0.7579053640365601  0.35955244302749634  1.0000
  O   O1        1.0  0.892341136932373  0.2576138377189636  0.9844709038734436  1.0000
  Ba  Ba2       1.0  0.3925161063671112  0.7576789259910583  0.001815199851989746  1.0000
  Ti  Ti3       1.0  0.39229968190193176  0.25776445865631104  0.3599235713481903  1.0000
  Ti  Ti4       1.0  0.8920628428459167  0.2573778033256531  0.18096207082271576  1.0000
  O   O2        1.0  0.3927075266838074  0.7577257752418518  0.7361456155776978  1.0000
