data_image908
_chemical_formula_structural       Ba3OTiOTiO5
_chemical_formula_sum              "Ba3 O7 Ti2"
_cell_length_a       4.069320697988016
_cell_length_b       4.07556400438854
_cell_length_c       11.154306411743164
_cell_angle_alpha    100.38399367391717
_cell_angle_beta     100.36461695522205
_cell_angle_gamma    89.99752328481597

_space_group_name_H-M_alt    "P 1"
_space_group_IT_number       1

loop_
  _space_group_symop_operation_xyz
  'x, y, z'

loop_
  _atom_site_type_symbol
  _atom_site_label
  _atom_site_symmetry_multiplicity
  _atom_site_fract_x
  _atom_site_fract_y
  _atom_site_fract_z
  _atom_site_occupancy
  Ba  Ba1       1.0  0.3519118130207062  0.6380590796470643  0.7985089421272278  1.0000
  Ba  Ba2       1.0  0.16553819179534912  0.4571453630924225  0.4324299693107605  1.0000
  Ba  Ba3       1.0  0.5397872924804688  0.8228700160980225  0.1647225022315979  1.0000
  O   O1        1.0  0.8522289991378784  0.151595801115036  0.7987807989120483  1.0000
  Ti  Ti1       1.0  0.9646489024162292  0.22213226556777954  0.9891627430915833  1.0000
  O   O2        1.0  0.26918601989746094  0.05391480028629303  0.6091110110282898  1.0000
  Ti  Ti2       1.0  0.7393527030944824  0.028994427993893627  0.6089586019515991  1.0000
  O   O3        1.0  0.43507567048072815  0.24336820840835574  0.9878407120704651  1.0000
  O   O4        1.0  0.9438287019729614  0.7543735504150391  0.9879509210586548  1.0000
  O   O5        1.0  0.7621380686759949  0.5631492137908936  0.6091572046279907  1.0000
  O   O6        1.0  0.03203164041042328  0.33631032705307007  0.1691684126853943  1.0000
  O   O7        1.0  0.6718208193778992  0.9652887582778931  0.4275721311569214  1.0000
