data_image821
_chemical_formula_structural       BaTiOTiBaO5
_chemical_formula_sum              "Ba2 Ti2 O6"
_cell_length_a       5.4568629155704285
_cell_length_b       5.454719230354085
_cell_length_c       6.4812140464782715
_cell_angle_alpha    65.16640396678241
_cell_angle_beta     65.17043445818533
_cell_angle_gamma    59.986532690988554

_space_group_name_H-M_alt    "P 1"
_space_group_IT_number       1

loop_
  _space_group_symop_operation_xyz
  'x, y, z'

loop_
  _atom_site_type_symbol
  _atom_site_label
  _atom_site_symmetry_multiplicity
  _atom_site_fract_x
  _atom_site_fract_y
  _atom_site_fract_z
  _atom_site_occupancy
  Ba  Ba1       1.0  0.583925187587738  0.08089260756969452  0.34056076407432556  1.0000
  Ti  Ti1       1.0  0.12082221359014511  0.6184686422348022  0.7294396758079529  1.0000
  O   O1        1.0  0.03742508590221405  0.028337759897112846  0.48579370975494385  1.0000
  Ti  Ti2       1.0  0.8038198947906494  0.30059483647346497  0.6817607283592224  1.0000
  Ba  Ba2       1.0  0.34057071805000305  0.838162899017334  0.07061785459518426  1.0000
  O   O2        1.0  0.8868632912635803  0.8902585506439209  0.9253721833229065  1.0000
  O   O3        1.0  0.5311988592147827  0.5350033044815063  0.4858322739601135  1.0000
  O   O4        1.0  0.8867161870002747  0.3842543065547943  0.9257922768592834  1.0000
  O   O5        1.0  0.39311170578002924  0.3842199444770813  0.9250792264938354  1.0000
  O   O6        1.0  0.03782522678375244  0.5348244905471802  0.4853726327419281  1.0000
