data_image612
_chemical_formula_structural       Ba2Ti2O3Ba2O3
_chemical_formula_sum              "Ba4 Ti2 O6"
_cell_length_a       3.6497746217563503
_cell_length_b       6.310175946771866
_cell_length_c       9.72955322265625
_cell_angle_alpha    90.00729031628623
_cell_angle_beta     89.97643152234556
_cell_angle_gamma    89.96548956050225

_space_group_name_H-M_alt    "P 1"
_space_group_IT_number       1

loop_
  _space_group_symop_operation_xyz
  'x, y, z'

loop_
  _atom_site_type_symbol
  _atom_site_label
  _atom_site_symmetry_multiplicity
  _atom_site_fract_x
  _atom_site_fract_y
  _atom_site_fract_z
  _atom_site_occupancy
  Ba  Ba1       1.0  0.9086601734161378  0.5613266229629517  0.9243632555007935  1.0000
  Ba  Ba2       1.0  0.9088920354843141  0.062127236276865  0.6239789724349976  1.0000
  Ti  Ti1       1.0  0.4089930653572083  0.5626821517944336  0.6332383751869202  1.0000
  Ti  Ti2       1.0  0.9083278179168702  0.06147615984082221  0.27634844183921814  1.0000
  O   O1        1.0  0.4092026352882386  0.7992687821388245  0.7504907846450806  1.0000
  O   O2        1.0  0.907964587211609  0.8250250816345214  0.1606513261795044  1.0000
  O   O3        1.0  0.9083227515220643  0.5618215203285217  0.5467686653137207  1.0000
  Ba  Ba3       1.0  0.40828454494476324  0.5620834827423096  0.2859175503253937  1.0000
  Ba  Ba4       1.0  0.4085510075092316  0.06282678246498108  0.9849070906639099  1.0000
  O   O4        1.0  0.4087988436222077  0.3238659203052521  0.7486625909805298  1.0000
  O   O5        1.0  0.9084188342094422  0.2993834018707275  0.1611812859773636  1.0000
  O   O6        1.0  0.40827962756156927  0.06237665936350822  0.36075833439826965  1.0000
