data_image774
_chemical_formula_structural       BaTiO2
_chemical_formula_sum              "Ba1 Ti1 O2"
_cell_length_a       3.291408344357508
_cell_length_b       3.2910359262777447
_cell_length_c       6.312876224517822
_cell_angle_alpha    74.93633985970838
_cell_angle_beta     74.9368930570472
_cell_angle_gamma    60.118501971709776

_space_group_name_H-M_alt    "P 1"
_space_group_IT_number       1

loop_
  _space_group_symop_operation_xyz
  'x, y, z'

loop_
  _atom_site_type_symbol
  _atom_site_label
  _atom_site_symmetry_multiplicity
  _atom_site_fract_x
  _atom_site_fract_y
  _atom_site_fract_z
  _atom_site_occupancy
  Ba  Ba1       1.0  0.06554283201694489  0.01038013119250536  0.7068014144897461  1.0000
  Ti  Ti1       1.0  0.5655087828636169  0.5095483064651489  0.20762306451797485  1.0000
  O   O1        1.0  0.2883512079715729  0.23294785618782043  0.039074499160051346  1.0000
  O   O2        1.0  0.8432540893554686  0.7874584794044495  0.37502261996269226  1.0000
