data_image190
_chemical_formula_structural       OTiBaO
_chemical_formula_sum              "O2 Ti1 Ba1"
_cell_length_a       3.3216592054230127
_cell_length_b       3.323112378197023
_cell_length_c       6.296657085418701
_cell_angle_alpha    74.73309616698714
_cell_angle_beta     74.73609439966816
_cell_angle_gamma    60.03441936486835

_space_group_name_H-M_alt    "P 1"
_space_group_IT_number       1

loop_
  _space_group_symop_operation_xyz
  'x, y, z'

loop_
  _atom_site_type_symbol
  _atom_site_label
  _atom_site_symmetry_multiplicity
  _atom_site_fract_x
  _atom_site_fract_y
  _atom_site_fract_z
  _atom_site_occupancy
  O   O1        1.0  0.22058430314064031  0.6974880099296569  0.9513683319091796  1.0000
  Ti  Ti1       1.0  0.49755862355232244  0.9755249619483947  0.11869366466999053  1.0000
  Ba  Ba1       1.0  0.9978083372116089  0.47515806555747986  0.6185718178749084  1.0000
  O   O2        1.0  0.7751979231834412  0.2530948519706726  0.2858071029186249  1.0000
