data_image915
_chemical_formula_structural       OTiBa2O6TiO
_chemical_formula_sum              "O8 Ti2 Ba2"
_cell_length_a       4.100360465592826
_cell_length_b       5.905332484100909
_cell_length_c       6.668562889099121
_cell_angle_alpha    89.87424507339105
_cell_angle_beta     96.37796484735655
_cell_angle_gamma    89.94297042274172

_space_group_name_H-M_alt    "P 1"
_space_group_IT_number       1

loop_
  _space_group_symop_operation_xyz
  'x, y, z'

loop_
  _atom_site_type_symbol
  _atom_site_label
  _atom_site_symmetry_multiplicity
  _atom_site_fract_x
  _atom_site_fract_y
  _atom_site_fract_z
  _atom_site_occupancy
  O   O1        1.0  0.5607874989509583  0.4365862309932708  0.3451363146305084  1.0000
  Ti  Ti1       1.0  0.4687040150165558  0.1728529185056686  0.7449265122413634  1.0000
  Ba  Ba1       1.0  0.9019224643707275  0.6716849207878113  0.6746466755867004  1.0000
  Ba  Ba2       1.0  0.021223174408078194  0.17117561399936676  0.1896293759346008  1.0000
  O   O2        1.0  0.45949527621269226  0.4247781932353973  0.9301413893699645  1.0000
  O   O3        1.0  0.4611392617225647  0.9243465662002562  0.9337385892868043  1.0000
  O   O4        1.0  0.36480316519737244  0.9361746907234191  0.5208237767219543  1.0000
  O   O5        1.0  0.3620826303958893  0.4060018062591552  0.5161648392677307  1.0000
  O   O6        1.0  0.01643557660281658  0.6725401878356934  0.12793555855751038  1.0000
  O   O7        1.0  0.9066246747970581  0.17362378537654874  0.736872375011444  1.0000
  Ti  Ti2       1.0  0.4543684720993042  0.6722293496131897  0.11930402368307112  1.0000
  O   O8        1.0  0.5601551532745361  0.9063383936882018  0.3452127277851105  1.0000
