data_image250
_chemical_formula_structural       BaTi2OBaO3
_chemical_formula_sum              "Ba2 Ti2 O4"
_cell_length_a       3.8919889722252816
_cell_length_b       3.8868302524646725
_cell_length_c       11.342286109924316
_cell_angle_alpha    100.06567267363978
_cell_angle_beta     100.2318238140362
_cell_angle_gamma    90.43830927078632

_space_group_name_H-M_alt    "P 1"
_space_group_IT_number       1

loop_
  _space_group_symop_operation_xyz
  'x, y, z'

loop_
  _atom_site_type_symbol
  _atom_site_label
  _atom_site_symmetry_multiplicity
  _atom_site_fract_x
  _atom_site_fract_y
  _atom_site_fract_z
  _atom_site_occupancy
  Ba  Ba1       1.0  0.8276736140251161  0.8181691765785216  0.07641968876123428  1.0000
  Ti  Ti1       1.0  0.5110478401184082  0.4987708628177642  0.445954829454422  1.0000
  Ti  Ti2       1.0  0.009926049038767815  0.9984828233718871  0.44491371512413025  1.0000
  O   O1        1.0  0.30900970101356506  0.2986681759357452  0.041777532547712326  1.0000
  Ba  Ba2       1.0  0.19105619192123416  0.1815514415502548  0.8125153183937073  1.0000
  O   O2        1.0  0.5086246728897095  0.9983264207839966  0.44373059272766113  1.0000
  O   O3        1.0  0.7101151943206788  0.7018348574638366  0.8484790325164795  1.0000
  O   O4        1.0  0.010263066738843914  0.4985642731189727  0.4452354609966278  1.0000
