data_image966
_chemical_formula_structural       BaTiO2TiO4BaO2
_chemical_formula_sum              "Ba2 Ti2 O8"
_cell_length_a       4.0969005701486525
_cell_length_b       5.904701200103719
_cell_length_c       6.654224395751953
_cell_angle_alpha    89.82779294302007
_cell_angle_beta     96.1802306017033
_cell_angle_gamma    89.91042456559532

_space_group_name_H-M_alt    "P 1"
_space_group_IT_number       1

loop_
  _space_group_symop_operation_xyz
  'x, y, z'

loop_
  _atom_site_type_symbol
  _atom_site_label
  _atom_site_symmetry_multiplicity
  _atom_site_fract_x
  _atom_site_fract_y
  _atom_site_fract_z
  _atom_site_occupancy
  Ba  Ba1       1.0  0.17154523730278015  0.04385634884238243  0.05564983189105987  1.0000
  Ti  Ti1       1.0  0.7237412333488464  0.04310131445527076  0.49916997551918024  1.0000
  O   O1        1.0  0.7303649187088013  0.7928344607353209  0.31285038590431213  1.0000
  O   O2        1.0  0.828315258026123  0.27914226055145264  0.7247429490089417  1.0000
  Ti  Ti2       1.0  0.7380337715148926  0.5436377525329589  0.1254551261663437  1.0000
  O   O3        1.0  0.7296101450920105  0.2913921773433685  0.31245946884155273  1.0000
  O   O4        1.0  0.8292692303657532  0.8084220886230469  0.7271097898483276  1.0000
  O   O5        1.0  0.2868843078613281  0.042331695556640625  0.5099270939826965  1.0000
  O   O6        1.0  0.6329137682914734  0.7784706354141234  0.8993988633155822  1.0000
  Ba  Ba2       1.0  0.2900669574737549  0.5438516736030579  0.5694259405136108  1.0000
  O   O7        1.0  0.6341165900230408  0.30849978327751154  0.8996635079383849  1.0000
  O   O8        1.0  0.17487888038158417  0.5429679155349731  0.11575834453105925  1.0000
