data_image976
_chemical_formula_structural       BaOBaOBaTiO4BaTi
_chemical_formula_sum              "Ba4 O6 Ti2"
_cell_length_a       3.9448948492992453
_cell_length_b       5.877844135405474
_cell_length_c       12.094038009643555
_cell_angle_alpha    90.21843878207596
_cell_angle_beta     99.35667162655871
_cell_angle_gamma    90.05681601659464

_space_group_name_H-M_alt    "P 1"
_space_group_IT_number       1

loop_
  _space_group_symop_operation_xyz
  'x, y, z'

loop_
  _atom_site_type_symbol
  _atom_site_label
  _atom_site_symmetry_multiplicity
  _atom_site_fract_x
  _atom_site_fract_y
  _atom_site_fract_z
  _atom_site_occupancy
  Ba  Ba1       1.0  0.5393571257591248  0.09943688660860062  0.7134143710136414  1.0000
  O   O1        1.0  0.22115665674209595  0.9404960870742798  0.07877111434936523  1.0000
  Ba  Ba2       1.0  0.6570477485656738  0.6802226901054383  0.9503775238990785  1.0000
  O   O2        1.0  0.6529021859169006  0.20879380404949188  0.9420263171195985  1.0000
  Ba  Ba3       1.0  0.899733304977417  0.5965520143508912  0.4337559342384339  1.0000
  Ti  Ti1       1.0  0.1615140587091446  0.16241176426410675  0.9584596753120423  1.0000
  O   O3        1.0  0.21602332592010498  0.4419733583927155  0.06804736703634262  1.0000
  O   O4        1.0  0.10068695992231369  0.9485774636268616  0.8349062204360963  1.0000
  O   O5        1.0  0.33758389949798584  0.4450337886810303  0.3115924596786499  1.0000
  O   O6        1.0  0.7847943305969238  0.7071755528450013  0.20439094305038455  1.0000
  Ba  Ba4       1.0  0.7802664041519165  0.17849935591220856  0.1973540782928467  1.0000
  Ti  Ti2       1.0  0.276712030172348  0.6607423424720764  0.18891264498233798  1.0000
