data_image853
_chemical_formula_structural       BaOTiO
_chemical_formula_sum              "Ba1 O2 Ti1"
_cell_length_a       3.290486767418819
_cell_length_b       3.286134245188579
_cell_length_c       6.52780818939209
_cell_angle_alpha    75.34776388016476
_cell_angle_beta     75.3459405407832
_cell_angle_gamma    59.93963329601285

_space_group_name_H-M_alt    "P 1"
_space_group_IT_number       1

loop_
  _space_group_symop_operation_xyz
  'x, y, z'

loop_
  _atom_site_type_symbol
  _atom_site_label
  _atom_site_symmetry_multiplicity
  _atom_site_fract_x
  _atom_site_fract_y
  _atom_site_fract_z
  _atom_site_occupancy
  Ba  Ba1       1.0  0.5964336395263671  0.6312110424041748  0.4857993721961975  1.0000
  O   O1        1.0  0.15714497864246368  0.19248145818710327  0.8042002320289612  1.0000
  Ti  Ti1       1.0  0.7699072957038879  0.80560702085495  0.9653412103652954  1.0000
  O   O2        1.0  0.381617933511734  0.41734406352043146  0.13055658340454102  1.0000
