data_image760
_chemical_formula_structural       Ba2TiO6
_chemical_formula_sum              "Ba2 Ti1 O6"
_cell_length_a       5.32692813166481
_cell_length_b       6.362217814503165
_cell_length_c       5.930632591247559
_cell_angle_alpha    63.64994565645165
_cell_angle_beta     63.447265829484294
_cell_angle_gamma    65.4749928655325

_space_group_name_H-M_alt    "P 1"
_space_group_IT_number       1

loop_
  _space_group_symop_operation_xyz
  'x, y, z'

loop_
  _atom_site_type_symbol
  _atom_site_label
  _atom_site_symmetry_multiplicity
  _atom_site_fract_x
  _atom_site_fract_y
  _atom_site_fract_z
  _atom_site_occupancy
  Ba  Ba1       1.0  0.9701300859451295  0.5877485871315002  0.8661785125732422  1.0000
  Ba  Ba2       1.0  0.4206714332103729  0.12998752295970917  0.4242198169231415  1.0000
  Ti  Ti1       1.0  0.19562418758869177  0.8589178919792175  0.14459902048110962  1.0000
  O   O1        1.0  0.951195478439331  0.12956255674362183  0.9462088942527771  1.0000
  O   O2        1.0  0.4410875141620636  0.58949875831604  0.3419317305088042  1.0000
  O   O3        1.0  0.3681669235229492  0.12836290895938873  0.9452688097953796  1.0000
  O   O4        1.0  0.9835612177848817  0.9940181374549865  0.4317073523998259  1.0000
  O   O5        1.0  0.4064391851425171  0.7246083021163939  0.8579456210136414  1.0000
  O   O6        1.0  0.02168003842234614  0.5886551141738892  0.3451908826828003  1.0000
