data_image129
_chemical_formula_structural       Ba2OBaOBaTiOTiOBaO5
_chemical_formula_sum              "Ba5 O9 Ti2"
_cell_length_a       3.8640970478226104
_cell_length_b       6.682368863019016
_cell_length_c       11.3299560546875
_cell_angle_alpha    84.50461693565573
_cell_angle_beta     90.06885764371695
_cell_angle_gamma    90.08902718850456

_space_group_name_H-M_alt    "P 1"
_space_group_IT_number       1

loop_
  _space_group_symop_operation_xyz
  'x, y, z'

loop_
  _atom_site_type_symbol
  _atom_site_label
  _atom_site_symmetry_multiplicity
  _atom_site_fract_x
  _atom_site_fract_y
  _atom_site_fract_z
  _atom_site_occupancy
  Ba  Ba1       1.0  0.5414642095565796  0.08618409931659698  0.48658591508865356  1.0000
  Ba  Ba2       1.0  0.5417662262916565  0.7386313676834105  0.036425381898880005  1.0000
  O   O1        1.0  0.542384147644043  0.34545695781707764  0.04581298306584358  1.0000
  Ba  Ba3       1.0  0.5415248870849609  0.5608420372009277  0.5674861669540405  1.0000
  O   O2        1.0  0.0417291559278965  0.5829923152923584  0.7515529990196228  1.0000
  Ba  Ba4       1.0  0.5428250432014465  0.26734501123428345  0.8305522799491882  1.0000
  Ti  Ti1       1.0  0.041406817734241486  0.6578444838523865  0.32576435804367065  1.0000
  O   O3        1.0  0.04195965453982353  0.7972792387008667  0.4623282849788666  1.0000
  Ti  Ti2       1.0  0.04175906255841255  0.8727996349334717  0.7443615198135376  1.0000
  O   O4        1.0  0.04126147925853729  0.14455083012580872  0.6540203094482422  1.0000
  Ba  Ba5       1.0  0.042468104511499405  0.21574801206588742  0.16678087413311005  1.0000
  O   O5        1.0  0.5417170524597168  0.8667147159576416  0.708093523979187  1.0000
  O   O6        1.0  0.5412369966506958  0.6439444422721863  0.3159608244895935  1.0000
  O   O7        1.0  0.04246189072728157  0.8142300844192504  0.17690438032150269  1.0000
  O   O8        1.0  0.04171016067266464  0.9531019330024719  0.895532488822937  1.0000
  O   O9        1.0  0.04176727682352066  0.3698146045207977  0.3738650381565094  1.0000
