data_image910
_chemical_formula_structural       Ba3TiO2
_chemical_formula_sum              "Ba3 Ti1 O2"
_cell_length_a       4.093264584348448
_cell_length_b       4.093369700499454
_cell_length_c       11.310542106628418
_cell_angle_alpha    89.98136291673845
_cell_angle_beta     89.99729091935096
_cell_angle_gamma    90.02739156200892

_space_group_name_H-M_alt    "P 1"
_space_group_IT_number       1

loop_
  _space_group_symop_operation_xyz
  'x, y, z'

loop_
  _atom_site_type_symbol
  _atom_site_label
  _atom_site_symmetry_multiplicity
  _atom_site_fract_x
  _atom_site_fract_y
  _atom_site_fract_z
  _atom_site_occupancy
  Ba  Ba1       1.0  0.28518766164779663  0.895018994808197  0.9962975382804871  1.0000
  Ba  Ba2       1.0  0.78585284948349  0.3949757814407348  0.6634964942932129  1.0000
  Ba  Ba3       1.0  0.28561684489250183  0.8953769207000731  0.3303881585597992  1.0000
  Ti  Ti1       1.0  0.7855436205863953  0.3951621055603027  0.1639288067817688  1.0000
  O   O1        1.0  0.7855806350708008  0.8952390551567077  0.16400718688964844  1.0000
  O   O2        1.0  0.28573325276374817  0.3953632712364197  0.16252663731575012  1.0000
