data_image683
_chemical_formula_structural       TiOBa3OBaO2TiOBaTiO5
_chemical_formula_sum              "Ti3 O10 Ba5"
_cell_length_a       3.833012394517829
_cell_length_b       3.882919563177974
_cell_length_c       20.9156436920166
_cell_angle_alpha    89.99526918342033
_cell_angle_beta     89.99055635329576
_cell_angle_gamma    90.03185850867064

_space_group_name_H-M_alt    "P 1"
_space_group_IT_number       1

loop_
  _space_group_symop_operation_xyz
  'x, y, z'

loop_
  _atom_site_type_symbol
  _atom_site_label
  _atom_site_symmetry_multiplicity
  _atom_site_fract_x
  _atom_site_fract_y
  _atom_site_fract_z
  _atom_site_occupancy
  Ti  Ti1       1.0  0.7298663854598999  0.41910049319267273  0.04166571423411369  1.0000
  O   O1        1.0  0.23211303353309629  0.9161907434463501  0.8033140897750854  1.0000
  Ba  Ba1       1.0  0.731661319732666  0.41681855916976923  0.799216628074646  1.0000
  Ba  Ba2       1.0  0.22995258867740628  0.9175840616226196  0.9407543540000916  1.0000
  Ba  Ba3       1.0  0.7319750189781189  0.41818180680274963  0.5941362977027893  1.0000
  O   O2        1.0  0.7300696969032288  0.42060360312461853  0.3919164836406708  1.0000
  Ba  Ba4       1.0  0.7293261885643005  0.42035818099975586  0.27397724986076355  1.0000
  O   O3        1.0  0.7312867045402527  0.9184713363647461  0.5244972705841064  1.0000
  O   O4        1.0  0.22932553291320798  0.9199913144111633  0.24956780672073364  1.0000
  Ti  Ti2       1.0  0.23275806009769437  0.9170746207237244  0.7084447741508484  1.0000
  O   O5        1.0  0.7284383177757263  0.9185590744018555  0.0345735140144825  1.0000
  Ba  Ba5       1.0  0.23030576109886167  0.919538676738739  0.4333500266075134  1.0000
  Ti  Ti3       1.0  0.22934514284133908  0.9201056957244873  0.1607498675584793  1.0000
  O   O6        1.0  0.7306813597679138  0.41766756772994995  0.9354463219642639  1.0000
  O   O7        1.0  0.23342528939247129  0.4167083203792572  0.6942015290260315  1.0000
  O   O8        1.0  0.2285143136978149  0.419329434633255  0.10038578510284424  1.0000
  O   O9        1.0  0.7327045202255249  0.9168983697891235  0.6993754506111145  1.0000
  O   O10       1.0  0.7282022833824158  0.9203224182128906  0.1627180427312851  1.0000
