data_image748
_chemical_formula_structural       TiBa2O3
_chemical_formula_sum              "Ti1 Ba2 O3"
_cell_length_a       3.965134133147067
_cell_length_b       4.034749991371721
_cell_length_c       7.381673812866211
_cell_angle_alpha    105.82907500188121
_cell_angle_beta     105.60354076129545
_cell_angle_gamma    90.01712603536129

_space_group_name_H-M_alt    "P 1"
_space_group_IT_number       1

loop_
  _space_group_symop_operation_xyz
  'x, y, z'

loop_
  _atom_site_type_symbol
  _atom_site_label
  _atom_site_symmetry_multiplicity
  _atom_site_fract_x
  _atom_site_fract_y
  _atom_site_fract_z
  _atom_site_occupancy
  Ti  Ti1       1.0  0.8558269143104553  0.5063812136650085  0.8274927735328673  1.0000
  Ba  Ba1       1.0  0.20979242026805878  0.8601067662239075  0.534740686416626  1.0000
  Ba  Ba2       1.0  0.5020051598548889  0.15322768688201904  0.12007001042366026  1.0000
  O   O1        1.0  0.8559048771858215  0.006372523494064808  0.8273592591285704  1.0000
  O   O2        1.0  0.7106194496154785  0.36072030663490295  0.5368819832801819  1.0000
  O   O3        1.0  0.0011439331574365497  0.6522386074066162  0.11816237866878508  1.0000
