data_image935
_chemical_formula_structural       Ba2TiOTiO3
_chemical_formula_sum              "Ba2 Ti2 O4"
_cell_length_a       3.8021190454550124
_cell_length_b       3.808647359170706
_cell_length_c       10.994030952453613
_cell_angle_alpha    89.96575593601503
_cell_angle_beta     89.99294691904308
_cell_angle_gamma    89.99774171188452

_space_group_name_H-M_alt    "P 1"
_space_group_IT_number       1

loop_
  _space_group_symop_operation_xyz
  'x, y, z'

loop_
  _atom_site_type_symbol
  _atom_site_label
  _atom_site_symmetry_multiplicity
  _atom_site_fract_x
  _atom_site_fract_y
  _atom_site_fract_z
  _atom_site_occupancy
  Ba  Ba1       1.0  0.16565175354480743  0.37532946467399597  0.5490524172782898  1.0000
  Ba  Ba2       1.0  0.6656097769737244  0.875807523727417  0.1676013022661209  1.0000
  Ti  Ti1       1.0  0.16547973453998566  0.37497571110725403  0.9227672815322876  1.0000
  O   O1        1.0  0.16461478173732758  0.3752145767211914  0.09549054503440857  1.0000
  Ti  Ti2       1.0  0.66595059633255  0.8756129741668701  0.7938944697380066  1.0000
  O   O2        1.0  0.6664133071899414  0.3754049837589264  0.8584016561508179  1.0000
  O   O3        1.0  0.6663011908531189  0.8744258880615234  0.6223620176315308  1.0000
  O   O4        1.0  0.16541092097759247  0.8748166561126709  0.8608059287071228  1.0000
