data_image995
_chemical_formula_structural       OTiBa2TiO5
_chemical_formula_sum              "O6 Ti2 Ba2"
_cell_length_a       4.250212071746332
_cell_length_b       5.655003135816491
_cell_length_c       5.656178951263428
_cell_angle_alpha    89.92508898819378
_cell_angle_beta     89.9765476340117
_cell_angle_gamma    89.992578089082

_space_group_name_H-M_alt    "P 1"
_space_group_IT_number       1

loop_
  _space_group_symop_operation_xyz
  'x, y, z'

loop_
  _atom_site_type_symbol
  _atom_site_label
  _atom_site_symmetry_multiplicity
  _atom_site_fract_x
  _atom_site_fract_y
  _atom_site_fract_z
  _atom_site_occupancy
  O   O1        1.0  0.4410572052001953  0.3559741973876953  0.8271737098693848  1.0000
  Ti  Ti1       1.0  0.38745394349098206  0.10612211376428603  0.0780610665678978  1.0000
  Ba  Ba1       1.0  0.9060446619987488  0.6056205034255981  0.07751549035310745  1.0000
  Ba  Ba2       1.0  0.9054181575775146  0.10630225390195847  0.5779977440834045  1.0000
  Ti  Ti2       1.0  0.3868873715400696  0.6060428023338318  0.5777615904808044  1.0000
  O   O2        1.0  0.9644684791564941  0.6061842441558838  0.5775781273841858  1.0000
  O   O3        1.0  0.44216233491897583  0.8565210103988647  0.32765936851501465  1.0000
  O   O4        1.0  0.4410979449748993  0.35599932074546814  0.32794034481048584  1.0000
  O   O5        1.0  0.9641962051391602  0.10591115057468414  0.07769965380430222  1.0000
  O   O6        1.0  0.44200122356414795  0.8560477495193481  0.8274474740028381  1.0000
