data_image802
_chemical_formula_structural       Ba3OTiO
_chemical_formula_sum              "Ba3 O2 Ti1"
_cell_length_a       4.054994194870737
_cell_length_b       4.060541214404476
_cell_length_c       11.466739654541016
_cell_angle_alpha    90.02950209344947
_cell_angle_beta     90.01197582601523
_cell_angle_gamma    90.01742631649947

_space_group_name_H-M_alt    "P 1"
_space_group_IT_number       1

loop_
  _space_group_symop_operation_xyz
  'x, y, z'

loop_
  _atom_site_type_symbol
  _atom_site_label
  _atom_site_symmetry_multiplicity
  _atom_site_fract_x
  _atom_site_fract_y
  _atom_site_fract_z
  _atom_site_occupancy
  Ba  Ba1       1.0  0.979864776134491  0.6631605625152588  0.08465594798326492  1.0000
  Ba  Ba2       1.0  0.47969573736190796  0.16338805854320526  0.752366304397583  1.0000
  Ba  Ba3       1.0  0.9798159003257751  0.663223385810852  0.421476274728775  1.0000
  O   O1        1.0  0.9796038269996643  0.16300545632839203  0.2525935173034668  1.0000
  Ti  Ti1       1.0  0.4795091450214386  0.163332462310791  0.252236008644104  1.0000
  O   O2        1.0  0.4793844223022461  0.6634043455123901  0.25258782505989075  1.0000
