data_image573
_chemical_formula_structural       Ba2TiO5BaO2Ti
_chemical_formula_sum              "Ba3 Ti2 O7"
_cell_length_a       4.056529523328497
_cell_length_b       4.065646525483436
_cell_length_c       11.085942268371582
_cell_angle_alpha    100.55709163933605
_cell_angle_beta     100.54401187555166
_cell_angle_gamma    90.2597683582659

_space_group_name_H-M_alt    "P 1"
_space_group_IT_number       1

loop_
  _space_group_symop_operation_xyz
  'x, y, z'

loop_
  _atom_site_type_symbol
  _atom_site_label
  _atom_site_symmetry_multiplicity
  _atom_site_fract_x
  _atom_site_fract_y
  _atom_site_fract_z
  _atom_site_occupancy
  Ba  Ba1       1.0  0.19722400605678558  0.07737205177545547  0.8497963547706604  1.0000
  Ba  Ba2       1.0  0.017463453114032745  0.8887142539024353  0.4822157323360443  1.0000
  Ti  Ti1       1.0  0.6200252175331116  0.46318098902702337  0.6582976579666138  1.0000
  O   O1        1.0  0.5976811647415161  0.9956856369972229  0.6603158712387085  1.0000
  O   O2        1.0  0.3036665618419647  0.6663818359375  0.03850118815898895  1.0000
  O   O3        1.0  0.7947061657905579  0.15929201245307925  0.03876394033432008  1.0000
  O   O4        1.0  0.08952373266220093  0.4873103797435761  0.660687267780304  1.0000
  O   O5        1.0  0.8881656527519226  0.7572733163833619  0.221204936504364  1.0000
  Ba  Ba3       1.0  0.3755611181259155  0.2645587921142578  0.21565568447113037  1.0000
  O   O6        1.0  0.6962737441062927  0.5773897767066956  0.849506139755249  1.0000
  O   O7        1.0  0.5053895711898804  0.396884560585022  0.47713446617126465  1.0000
  Ti  Ti2       1.0  0.774046778678894  0.690530002117157  0.03952495753765106  1.0000
