data_image937
_chemical_formula_structural       BaTiBaO5Ti2
_chemical_formula_sum              "Ba2 Ti3 O5"
_cell_length_a       6.138937429081359
_cell_length_b       5.450166088653439
_cell_length_c       6.856356143951416
_cell_angle_alpha    115.45337755135087
_cell_angle_beta     113.97352364361173
_cell_angle_gamma    89.26434967439023

_space_group_name_H-M_alt    "P 1"
_space_group_IT_number       1

loop_
  _space_group_symop_operation_xyz
  'x, y, z'

loop_
  _atom_site_type_symbol
  _atom_site_label
  _atom_site_symmetry_multiplicity
  _atom_site_fract_x
  _atom_site_fract_y
  _atom_site_fract_z
  _atom_site_occupancy
  Ba  Ba1       1.0  0.3120252788066864  0.3211086392402649  0.7648522257804871  1.0000
  Ti  Ti1       1.0  0.936434805393219  0.5982823371887207  0.3528528511524201  1.0000
  Ba  Ba2       1.0  0.9401342272758484  0.9078048467636107  0.9712606668472289  1.0000
  O   O1        1.0  0.5415201187133789  0.46225485205650324  0.558426022529602  1.0000
  O   O2        1.0  0.7953245043754578  0.8920918703079223  0.5282319188117981  1.0000
  O   O3        1.0  0.9344642758369446  0.2727070450782776  0.3853730857372284  1.0000
  O   O4        1.0  0.38982945680618286  0.8386764526367186  0.13393549621105189  1.0000
  O   O5        1.0  0.07468324154615401  0.4890069961547851  0.131172239780426  1.0000
  Ti  Ti2       1.0  0.6442625522613525  0.13966897130012512  0.38731470704078674  1.0000
  Ti  Ti3       1.0  0.4238201677799225  0.6574578285217285  0.35821735858917236  1.0000
