data_image725
_chemical_formula_structural       BaTiBaTiO5
_chemical_formula_sum              "Ba2 Ti2 O5"
_cell_length_a       4.038818793041211
_cell_length_b       5.757835942886245
_cell_length_c       7.464301586151123
_cell_angle_alpha    105.73555443572309
_cell_angle_beta     90.02655144996662
_cell_angle_gamma    90.04171446928854

_space_group_name_H-M_alt    "P 1"
_space_group_IT_number       1

loop_
  _space_group_symop_operation_xyz
  'x, y, z'

loop_
  _atom_site_type_symbol
  _atom_site_label
  _atom_site_symmetry_multiplicity
  _atom_site_fract_x
  _atom_site_fract_y
  _atom_site_fract_z
  _atom_site_occupancy
  Ba  Ba1       1.0  0.6106571555137634  0.5259461998939514  0.26670366525650024  1.0000
  Ti  Ti1       1.0  0.11119050532579422  0.9345446825027465  0.09135336428880692  1.0000
  Ba  Ba2       1.0  0.11130355298519135  0.1618036776781082  0.6632525324821472  1.0000
  Ti  Ti2       1.0  0.6109485030174255  0.6956955194473265  0.7962102890014648  1.0000
  O   O1        1.0  0.11111928522586823  0.24734362959861753  0.09937633574008942  1.0000
  O   O2        1.0  0.6114875674247742  0.4272199273109436  0.6005153059959412  1.0000
  O   O3        1.0  0.6110586524009705  0.865964949131012  0.058493722230196006  1.0000
  O   O4        1.0  0.1114836186170578  0.7438487410545348  0.814258098602295  1.0000
  O   O5        1.0  0.11151905357837677  0.8608993887901305  0.31815579533576965  1.0000
