data_image404
_chemical_formula_structural       TiBa2O5TiO
_chemical_formula_sum              "Ti2 Ba2 O6"
_cell_length_a       4.0570414613677785
_cell_length_b       4.062378082345999
_cell_length_c       8.147453308105469
_cell_angle_alpha    89.9248909152573
_cell_angle_beta     89.95508034610367
_cell_angle_gamma    89.87022891258574

_space_group_name_H-M_alt    "P 1"
_space_group_IT_number       1

loop_
  _space_group_symop_operation_xyz
  'x, y, z'

loop_
  _atom_site_type_symbol
  _atom_site_label
  _atom_site_symmetry_multiplicity
  _atom_site_fract_x
  _atom_site_fract_y
  _atom_site_fract_z
  _atom_site_occupancy
  Ti  Ti1       1.0  0.23745125532150269  0.4905619025230407  0.8069944977760315  1.0000
  Ba  Ba1       1.0  0.7375788688659668  0.9906818866729736  0.05589595437049866  1.0000
  Ba  Ba2       1.0  0.7376835346221924  0.9904772043228148  0.5585384368896484  1.0000
  O   O1        1.0  0.23740538954734802  0.49060821533203125  0.5571238398551941  1.0000
  O   O2        1.0  0.23773729801177979  0.490790456533432  0.056942012161016464  1.0000
  O   O3        1.0  0.7376220226287842  0.4902467131614685  0.8072952032089233  1.0000
  O   O4        1.0  0.7378277778625488  0.49078747630119324  0.3071594834327698  1.0000
  O   O5        1.0  0.23786357045173645  0.9907625317573547  0.30706557631492615  1.0000
  Ti  Ti2       1.0  0.23767611384391785  0.49060416221618647  0.3072982132434845  1.0000
  O   O6        1.0  0.23763179779052734  0.9908785820007324  0.8073825836181641  1.0000
