data_image314
_chemical_formula_structural       BaTiO2Ba2OTiOBaOBa2O2BaO4
_chemical_formula_sum              "Ba7 Ti2 O11"
_cell_length_a       6.97608775632607
_cell_length_b       6.993935280009117
_cell_length_c       10.054414749145508
_cell_angle_alpha    73.99887653410632
_cell_angle_beta     77.6848228939614
_cell_angle_gamma    69.01099975463121

_space_group_name_H-M_alt    "P 1"
_space_group_IT_number       1

loop_
  _space_group_symop_operation_xyz
  'x, y, z'

loop_
  _atom_site_type_symbol
  _atom_site_label
  _atom_site_symmetry_multiplicity
  _atom_site_fract_x
  _atom_site_fract_y
  _atom_site_fract_z
  _atom_site_occupancy
  Ba  Ba1       1.0  0.5576174855232239  0.5540133714675903  0.7880422472953796  1.0000
  Ti  Ti1       1.0  0.5185555219650269  0.19702410697937012  0.13112565875053406  1.0000
  O   O1        1.0  0.5533205866813659  0.3010171353816986  0.26852869987487793  1.0000
  O   O2        1.0  0.00490761362016201  0.36125126481056213  0.5777303576469421  1.0000
  Ba  Ba2       1.0  0.15738259255886078  0.2811022102832794  0.8175168633460999  1.0000
  Ba  Ba3       1.0  0.9847487807273864  0.17138037085533142  0.2323751151561737  1.0000
  O   O3        1.0  0.6572633981704712  0.7482957243919373  0.5287578105926514  1.0000
  Ti  Ti2       1.0  0.9200676679611205  0.6142336130142212  0.4547387361526489  1.0000
  O   O4        1.0  0.8567783832550048  0.6410846114158631  0.8509503602981567  1.0000
  Ba  Ba4       1.0  0.36821067333221436  0.10048750042915344  0.5059595108032227  1.0000
  O   O5        1.0  0.20976559817790982  0.9011648893356323  0.7758433222770691  1.0000
  Ba  Ba5       1.0  0.006900201551616191  0.7352665662765503  0.01680923067033291  1.0000
  Ba  Ba6       1.0  0.8681783080101012  0.9798359274864197  0.6697642207145691  1.0000
  O   O6        1.0  0.40197485685348505  0.9940454959869385  0.22686438262462616  1.0000
  O   O7        1.0  0.3223946988582611  0.37627553939819336  0.014257915318012258  1.0000
  Ba  Ba7       1.0  0.47308257222175587  0.6069473624229431  0.38785436749458313  1.0000
  O   O8        1.0  0.7892481088638306  0.12544938921928406  0.033589743077754974  1.0000
  O   O9        1.0  0.9124740958213805  0.542641818523407  0.29358115792274475  1.0000
  O   O10       1.0  0.4984969198703765  0.29110872745513916  0.6370031237602234  1.0000
  O   O11       1.0  0.06285911053419113  0.8053264617919922  0.43099698424339294  1.0000
