data_image672
_chemical_formula_structural       Ba2O3Ti2O3
_chemical_formula_sum              "Ba2 O6 Ti2"
_cell_length_a       4.048172797869632
_cell_length_b       4.051815535192468
_cell_length_c       8.136250495910645
_cell_angle_alpha    89.89957140377568
_cell_angle_beta     89.87051577695233
_cell_angle_gamma    89.82747875960342

_space_group_name_H-M_alt    "P 1"
_space_group_IT_number       1

loop_
  _space_group_symop_operation_xyz
  'x, y, z'

loop_
  _atom_site_type_symbol
  _atom_site_label
  _atom_site_symmetry_multiplicity
  _atom_site_fract_x
  _atom_site_fract_y
  _atom_site_fract_z
  _atom_site_occupancy
  Ba  Ba1       1.0  0.9598687887191772  0.872602105140686  0.3328106701374054  1.0000
  Ba  Ba2       1.0  0.9599174857139587  0.8729135990142822  0.8320308327674866  1.0000
  O   O1        1.0  0.4598756432533264  0.37300860881805414  0.8327462077140808  1.0000
  O   O2        1.0  0.45971769094467163  0.8722776770591735  0.5827051401138306  1.0000
  O   O3        1.0  0.45979776978492737  0.8728007078170775  0.08225186169147491  1.0000
  Ti  Ti1       1.0  0.4599774479866028  0.3728500306606292  0.08355522155761719  1.0000
  Ti  Ti2       1.0  0.4599543809890747  0.3728373348712921  0.5832633972167969  1.0000
  O   O4        1.0  0.4598925709724426  0.3723934292793274  0.33311551809310913  1.0000
  O   O5        1.0  0.9598621129989624  0.37268775701522827  0.08224903047084808  1.0000
  O   O6        1.0  0.9596027731895447  0.37261733412742615  0.5825964212417603  1.0000
