data_image609
_chemical_formula_structural       BaO4Ti
_chemical_formula_sum              "Ba1 O4 Ti1"
_cell_length_a       3.8771621237135565
_cell_length_b       3.885543009592582
_cell_length_c       5.4269118309021
_cell_angle_alpha    90.02528786580795
_cell_angle_beta     90.04311466147051
_cell_angle_gamma    90.06421311289783

_space_group_name_H-M_alt    "P 1"
_space_group_IT_number       1

loop_
  _space_group_symop_operation_xyz
  'x, y, z'

loop_
  _atom_site_type_symbol
  _atom_site_label
  _atom_site_symmetry_multiplicity
  _atom_site_fract_x
  _atom_site_fract_y
  _atom_site_fract_z
  _atom_site_occupancy
  Ba  Ba1       1.0  0.2608904242515564  0.9345359206199645  0.7632167935371399  1.0000
  O   O1        1.0  0.7611187696456908  0.9353835582733153  0.2633955180644989  1.0000
  O   O2        1.0  0.7610399723052977  0.43416929244995117  0.9001428484916688  1.0000
  O   O3        1.0  0.7611810564994811  0.43513548374176025  0.6275988221168518  1.0000
  O   O4        1.0  0.26079869270324707  0.4350933134555816  0.2636179029941559  1.0000
  Ti  Ti1       1.0  0.7613478302955626  0.4341731965541839  0.26213228702545166  1.0000
