data_image667
_chemical_formula_structural       Ba2O2TiO3
_chemical_formula_sum              "Ba2 O5 Ti1"
_cell_length_a       6.10229848067697
_cell_length_b       5.920505162102506
_cell_length_c       5.919398784637451
_cell_angle_alpha    62.18040924244861
_cell_angle_beta     58.90558215373855
_cell_angle_gamma    58.90668251778248

_space_group_name_H-M_alt    "P 1"
_space_group_IT_number       1

loop_
  _space_group_symop_operation_xyz
  'x, y, z'

loop_
  _atom_site_type_symbol
  _atom_site_label
  _atom_site_symmetry_multiplicity
  _atom_site_fract_x
  _atom_site_fract_y
  _atom_site_fract_z
  _atom_site_occupancy
  Ba  Ba1       1.0  0.6378273367881775  0.2744857966899872  0.46440002322196955  1.0000
  Ba  Ba2       1.0  0.13687920570373532  0.7759614586830139  0.9652812480926513  1.0000
  O   O1        1.0  0.14869149029254913  0.2644779086112976  0.8801556825637816  1.0000
  O   O2        1.0  0.7199510931968689  0.2663268744945526  0.8806735277175902  1.0000
  Ti  Ti1       1.0  0.8730717897415161  0.5385549664497375  0.7284095287322997  1.0000
  O   O3        1.0  0.14829555153846743  0.6911975741386414  0.4540027976036071  1.0000
  O   O4        1.0  0.7196757197380065  0.6919916868209839  0.4557004272937774  1.0000
  O   O5        1.0  0.6599158048629762  0.7530805468559265  0.9432010054588317  1.0000
