data_image321
_chemical_formula_structural       TiO2Ba
_chemical_formula_sum              "Ti1 O2 Ba1"
_cell_length_a       3.2844655631076622
_cell_length_b       3.2857229373390475
_cell_length_c       6.502832412719727
_cell_angle_alpha    75.24214157407513
_cell_angle_beta     75.2619566609182
_cell_angle_gamma    59.90709667618106

_space_group_name_H-M_alt    "P 1"
_space_group_IT_number       1

loop_
  _space_group_symop_operation_xyz
  'x, y, z'

loop_
  _atom_site_type_symbol
  _atom_site_label
  _atom_site_symmetry_multiplicity
  _atom_site_fract_x
  _atom_site_fract_y
  _atom_site_fract_z
  _atom_site_occupancy
  Ti  Ti1       1.0  0.7186465859413147  0.8618142008781434  0.518588662147522  1.0000
  O   O1        1.0  0.33183565735816956  0.47574657201766973  0.678658127784729  1.0000
  O   O2        1.0  0.10686489194631577  0.2507486045360565  0.3525713086128235  1.0000
  Ba  Ba1       1.0  0.8929373025894165  0.037338510155677795  0.9964292645454407  1.0000
