data_image789
_chemical_formula_structural       Ti2Ba2O7
_chemical_formula_sum              "Ti2 Ba2 O7"
_cell_length_a       5.235324323159751
_cell_length_b       6.675968814740344
_cell_length_c       6.67221212387085
_cell_angle_alpha    73.19720997085247
_cell_angle_beta     95.65180630974697
_cell_angle_gamma    84.56419651404958

_space_group_name_H-M_alt    "P 1"
_space_group_IT_number       1

loop_
  _space_group_symop_operation_xyz
  'x, y, z'

loop_
  _atom_site_type_symbol
  _atom_site_label
  _atom_site_symmetry_multiplicity
  _atom_site_fract_x
  _atom_site_fract_y
  _atom_site_fract_z
  _atom_site_occupancy
  Ti  Ti1       1.0  0.8798248767852783  0.5111591815948486  0.7073677182197571  1.0000
  Ti  Ti2       1.0  0.09998786449432376  0.9395932555198669  0.27953916788101196  1.0000
  Ba  Ba1       1.0  0.49031180143356323  0.02506153844296932  0.7933388352394104  1.0000
  Ba  Ba2       1.0  0.48917120695114136  0.4261665046215057  0.19273371994495392  1.0000
  O   O1        1.0  0.7019444704055786  0.35843855142593384  0.5822302103042603  1.0000
  O   O2        1.0  0.27815163135528564  0.09188476204872131  0.40410301089286804  1.0000
  O   O3        1.0  0.14500913023948672  0.32201561331748957  0.8954839706420898  1.0000
  O   O4        1.0  0.2757064402103424  0.8153681159019469  0.1253412663936615  1.0000
  O   O5        1.0  0.8336032032966614  0.1281549334526062  0.09132810682058334  1.0000
  O   O6        1.0  0.7026664614677429  0.6361480951309203  0.8599966168403625  1.0000
  O   O7        1.0  0.990759015083313  0.7248737215995789  0.49397340416908264  1.0000
