data_image907
_chemical_formula_structural       Ba2TiO4BaOBaOTi
_chemical_formula_sum              "Ba4 Ti2 O6"
_cell_length_a       5.800393227507408
_cell_length_b       6.222941275907761
_cell_length_c       6.228942394256592
_cell_angle_alpha    68.73459008676501
_cell_angle_beta     89.864020282701
_cell_angle_gamma    89.8273626456461

_space_group_name_H-M_alt    "P 1"
_space_group_IT_number       1

loop_
  _space_group_symop_operation_xyz
  'x, y, z'

loop_
  _atom_site_type_symbol
  _atom_site_label
  _atom_site_symmetry_multiplicity
  _atom_site_fract_x
  _atom_site_fract_y
  _atom_site_fract_z
  _atom_site_occupancy
  Ba  Ba1       1.0  0.40636882185935974  0.6875830888748169  0.2451888769865036  1.0000
  Ba  Ba2       1.0  0.9082651138305664  0.32554349303245544  0.2636263966560364  1.0000
  Ti  Ti1       1.0  0.9078728556632996  0.5933706164360047  0.6678308844566345  1.0000
  O   O1        1.0  0.40827181935310364  0.1618601977825165  0.09916536509990692  1.0000
  O   O2        1.0  0.15776139497756958  0.3731757700443268  0.6211065649986266  1.0000
  O   O3        1.0  0.1572689563035965  0.6414989829063416  0.8878920674324036  1.0000
  O   O4        1.0  0.6583037972450256  0.3729925751686096  0.6198457479476928  1.0000
  Ba  Ba3       1.0  0.40724116563796997  0.015530172735452654  0.5739688873291015  1.0000
  O   O5        1.0  0.6571327447891235  0.6417804956436158  0.8886833190917968  1.0000
  Ba  Ba4       1.0  0.9066731333732605  0.9982107877731323  0.9342752099037169  1.0000
  O   O6        1.0  0.9086589813232422  0.8509342074394226  0.4081766605377197  1.0000
  Ti  Ti2       1.0  0.40832826495170593  0.4201717972755432  0.840533435344696  1.0000
