data_image811
_chemical_formula_structural       BaTi3OBaOBaO8
_chemical_formula_sum              "Ba3 Ti3 O10"
_cell_length_a       3.968304088384731
_cell_length_b       3.972174746474673
_cell_length_c       15.57166862487793
_cell_angle_alpha    97.23854089443913
_cell_angle_beta     97.23079614951075
_cell_angle_gamma    89.93830539794574

_space_group_name_H-M_alt    "P 1"
_space_group_IT_number       1

loop_
  _space_group_symop_operation_xyz
  'x, y, z'

loop_
  _atom_site_type_symbol
  _atom_site_label
  _atom_site_symmetry_multiplicity
  _atom_site_fract_x
  _atom_site_fract_y
  _atom_site_fract_z
  _atom_site_occupancy
  Ba  Ba1       1.0  0.836704194545746  0.3767404258251191  0.9379033446311951  1.0000
  Ti  Ti1       1.0  0.2676793038845062  0.8090494871139527  0.8018128275871277  1.0000
  Ti  Ti2       1.0  0.12667563557624817  0.6669346094131471  0.5157299041748047  1.0000
  Ti  Ti3       1.0  0.9790553450584413  0.5202526450157167  0.22067198157310486  1.0000
  O   O1        1.0  0.19592602550983432  0.7372840046882629  0.6567122936248779  1.0000
  Ba  Ba2       1.0  0.6964306831359864  0.23726084828376773  0.6574904322624207  1.0000
  O   O2        1.0  0.7659360170364381  0.8060736656188966  0.794978141784668  1.0000
  Ba  Ba3       1.0  0.5555213093757629  0.09470608085393907  0.37175917625427246  1.0000
  O   O3        1.0  0.6293020844459534  0.6701374053955079  0.5218079090118408  1.0000
  O   O4        1.0  0.4909318685531617  0.5326090455055238  0.2455817610025406  1.0000
  O   O5        1.0  0.32993578910827637  0.8699712157249452  0.9230982661247253  1.0000
  O   O6        1.0  0.06573079526424408  0.6052839159965515  0.39203891158103943  1.0000
  O   O7        1.0  0.12945298850536346  0.1701965034008026  0.5214702486991882  1.0000
  O   O8        1.0  0.9220017790794374  0.4630101323127747  0.10729502141475677  1.0000
  O   O9        1.0  0.26497629284858704  0.30582866072654724  0.794930100440979  1.0000
  O   O10       1.0  0.9915996789932252  0.03182690218091011  0.24564842879772186  1.0000
