data_image1042
_chemical_formula_structural       BaTiOBaO2
_chemical_formula_sum              "Ba2 Ti1 O3"
_cell_length_a       3.952059459446416
_cell_length_b       4.040049468767593
_cell_length_c       7.397760391235352
_cell_angle_alpha    105.82279820175333
_cell_angle_beta     105.47569278511305
_cell_angle_gamma    90.0335252646714

_space_group_name_H-M_alt    "P 1"
_space_group_IT_number       1

loop_
  _space_group_symop_operation_xyz
  'x, y, z'

loop_
  _atom_site_type_symbol
  _atom_site_label
  _atom_site_symmetry_multiplicity
  _atom_site_fract_x
  _atom_site_fract_y
  _atom_site_fract_z
  _atom_site_occupancy
  Ba  Ba1       1.0  0.27915817499160767  0.9506388306617737  0.035292644053697586  1.0000
  Ti  Ti1       1.0  0.9259141683578491  0.5972446203231812  0.32917043566703796  1.0000
  O   O1        1.0  0.07074329257011414  0.7426514625549316  0.6184862852096558  1.0000
  Ba  Ba2       1.0  0.5717727541923523  0.2432253211736679  0.6213077306747437  1.0000
  O   O2        1.0  0.9253015518188477  0.0965191349387169  0.3276600241661072  1.0000
  O   O3        1.0  0.7800023555755615  0.4512188732624054  0.037765223532915115  1.0000
