data_image829
_chemical_formula_structural       BaTiO2
_chemical_formula_sum              "Ba1 Ti1 O2"
_cell_length_a       3.3127533732463217
_cell_length_b       3.3122741058512664
_cell_length_c       6.306394577026367
_cell_angle_alpha    74.79594657633146
_cell_angle_beta     74.80340387960467
_cell_angle_gamma    60.04707628095973

_space_group_name_H-M_alt    "P 1"
_space_group_IT_number       1

loop_
  _space_group_symop_operation_xyz
  'x, y, z'

loop_
  _atom_site_type_symbol
  _atom_site_label
  _atom_site_symmetry_multiplicity
  _atom_site_fract_x
  _atom_site_fract_y
  _atom_site_fract_z
  _atom_site_occupancy
  Ba  Ba1       1.0  0.23242595791816717  0.461073637008667  0.5177632570266724  1.0000
  Ti  Ti1       1.0  0.731852948665619  0.9605641961097716  0.01819521375000477  1.0000
  O   O1        1.0  0.4541114270687104  0.6832931041717529  0.8511890172958375  1.0000
  O   O2        1.0  0.009958868846297264  0.2392189651727676  0.18447659909725192  1.0000
