data_image922
_chemical_formula_structural       TiOTiBaOBaO2BaO3
_chemical_formula_sum              "Ti2 O7 Ba3"
_cell_length_a       3.986354608851583
_cell_length_b       3.9849139578676445
_cell_length_c       12.368134498596191
_cell_angle_alpha    89.96833091380913
_cell_angle_beta     90.00565107098753
_cell_angle_gamma    90.06436337913695

_space_group_name_H-M_alt    "P 1"
_space_group_IT_number       1

loop_
  _space_group_symop_operation_xyz
  'x, y, z'

loop_
  _atom_site_type_symbol
  _atom_site_label
  _atom_site_symmetry_multiplicity
  _atom_site_fract_x
  _atom_site_fract_y
  _atom_site_fract_z
  _atom_site_occupancy
  Ti  Ti1       1.0  0.8158689737319947  0.738209366798401  0.6429996490478516  1.0000
  O   O1        1.0  0.8156708478927613  0.23841384053230288  0.98544842004776  1.0000
  Ti  Ti2       1.0  0.8156157135963441  0.7386584877967836  0.9984171390533447  1.0000
  Ba  Ba1       1.0  0.3160622119903565  0.2386685609817505  0.49024394154548645  1.0000
  O   O2        1.0  0.3158645629882813  0.738767147064209  0.6550276875495911  1.0000
  Ba  Ba2       1.0  0.31596764922142034  0.2386209070682526  0.8206051588058472  1.0000
  O   O3        1.0  0.8161700367927552  0.7385711073875427  0.4888582229614258  1.0000
  O   O4        1.0  0.816419541835785  0.7376292943954468  0.3248441815376282  1.0000
  Ba  Ba3       1.0  0.31596952676773077  0.2380306124687195  0.15137292444705963  1.0000
  O   O5        1.0  0.8159176707267762  0.23865266144275668  0.6551251411437988  1.0000
  O   O6        1.0  0.8156194090843202  0.738084614276886  0.1534900665283203  1.0000
  O   O7        1.0  0.31595048308372503  0.7383039593696594  0.9854995012283325  1.0000
