data_image86
_chemical_formula_structural       BaOTiO
_chemical_formula_sum              "Ba1 O2 Ti1"
_cell_length_a       3.313704924245226
_cell_length_b       3.314043182074502
_cell_length_c       6.316526889801025
_cell_angle_alpha    74.83115647163939
_cell_angle_beta     74.80606919889742
_cell_angle_gamma    60.034263287695275

_space_group_name_H-M_alt    "P 1"
_space_group_IT_number       1

loop_
  _space_group_symop_operation_xyz
  'x, y, z'

loop_
  _atom_site_type_symbol
  _atom_site_label
  _atom_site_symmetry_multiplicity
  _atom_site_fract_x
  _atom_site_fract_y
  _atom_site_fract_z
  _atom_site_occupancy
  Ba  Ba1       1.0  0.729300320148468  0.6813122034072875  0.09459279477596283  1.0000
  O   O1        1.0  0.9518222808837891  0.9041997790336608  0.42687636613845825  1.0000
  Ti  Ti1       1.0  0.22962413728237152  0.181941956281662  0.593819797039032  1.0000
  O   O2        1.0  0.506736695766449  0.4592661261558532  0.7616797685623169  1.0000
