data_image571
_chemical_formula_structural       BaOTiBaOBaTiO5
_chemical_formula_sum              "Ba3 O7 Ti2"
_cell_length_a       4.074054794279381
_cell_length_b       4.0757108543519625
_cell_length_c       11.096346855163574
_cell_angle_alpha    100.60728660684302
_cell_angle_beta     100.56572379510264
_cell_angle_gamma    89.83124912009337

_space_group_name_H-M_alt    "P 1"
_space_group_IT_number       1

loop_
  _space_group_symop_operation_xyz
  'x, y, z'

loop_
  _atom_site_type_symbol
  _atom_site_label
  _atom_site_symmetry_multiplicity
  _atom_site_fract_x
  _atom_site_fract_y
  _atom_site_fract_z
  _atom_site_occupancy
  Ba  Ba1       1.0  0.19200530648231506  0.1899751722812653  0.5052474141120911  1.0000
  O   O1        1.0  0.40506479144096375  0.8921164870262147  0.9501217603683472  1.0000
  Ti  Ti1       1.0  0.42790812253952026  0.4268138706684113  0.9488520622253418  1.0000
  Ba  Ba2       1.0  0.8249428272247314  0.8236715197563171  0.7729365825653076  1.0000
  O   O2        1.0  0.5920768976211548  0.0798952579498291  0.32796308398246765  1.0000
  Ba  Ba3       1.0  0.010818183422088623  0.008700215257704258  0.13870036602020264  1.0000
  Ti  Ti2       1.0  0.6197217702865601  0.6168286800384521  0.32889193296432495  1.0000
  O   O3        1.0  0.31123366951942444  0.31020644307136536  0.7671652436256409  1.0000
  O   O4        1.0  0.08196629583835602  0.5909531712532043  0.3278404474258423  1.0000
  O   O5        1.0  0.6822665333747864  0.6805059313774109  0.510380744934082  1.0000
  O   O6        1.0  0.894557535648346  0.4034159183502197  0.9501059055328369  1.0000
  O   O7        1.0  0.49614012241363525  0.494025856256485  0.1381312757730484  1.0000
