data_image735
_chemical_formula_structural       BaOTiO
_chemical_formula_sum              "Ba1 O2 Ti1"
_cell_length_a       3.2574626495588794
_cell_length_b       3.251937760891285
_cell_length_c       6.500223159790039
_cell_angle_alpha    75.5398556508456
_cell_angle_beta     75.54862510238237
_cell_angle_gamma    60.026443416507654

_space_group_name_H-M_alt    "P 1"
_space_group_IT_number       1

loop_
  _space_group_symop_operation_xyz
  'x, y, z'

loop_
  _atom_site_type_symbol
  _atom_site_label
  _atom_site_symmetry_multiplicity
  _atom_site_fract_x
  _atom_site_fract_y
  _atom_site_fract_z
  _atom_site_occupancy
  Ba  Ba1       1.0  0.6090291142463685  0.7095258831977844  0.20085671544075012  1.0000
  O   O1        1.0  0.04853508993983269  0.14800450205802917  0.8844318389892578  1.0000
  Ti  Ti1       1.0  0.4360820353031159  0.5349331498146057  0.7230192422866821  1.0000
  O   O2        1.0  0.8240838646888733  0.9229561686515808  0.5576157569885254  1.0000
