data_image1047
_chemical_formula_structural       TiO3TiOBaO2Ba
_chemical_formula_sum              "Ti2 O6 Ba2"
_cell_length_a       5.128895833571577
_cell_length_b       5.888420133112329
_cell_length_c       5.893596649169922
_cell_angle_alpha    120.18519738909916
_cell_angle_beta     90.1263541664993
_cell_angle_gamma    90.05801813898763

_space_group_name_H-M_alt    "P 1"
_space_group_IT_number       1

loop_
  _space_group_symop_operation_xyz
  'x, y, z'

loop_
  _atom_site_type_symbol
  _atom_site_label
  _atom_site_symmetry_multiplicity
  _atom_site_fract_x
  _atom_site_fract_y
  _atom_site_fract_z
  _atom_site_occupancy
  Ti  Ti1       1.0  0.7626054286956787  0.27577170729637146  0.3180346190929413  1.0000
  O   O1        1.0  0.004874706268310547  0.42429864406585693  0.16933538019657135  1.0000
  O   O2        1.0  0.004967542365193367  0.42412105202674866  0.6132457256317139  1.0000
  O   O3        1.0  0.5049615502357483  0.5720483064651489  0.4648078978061676  1.0000
  Ti  Ti2       1.0  0.2627982497215271  0.2760029137134552  0.31610879302024847  1.0000
  O   O4        1.0  0.0047661117278039455  0.9807642102241516  0.17023751139640816  1.0000
  Ba  Ba1       1.0  0.11206525564193726  0.9428586959838868  0.6494187712669374  1.0000
  O   O5        1.0  0.5042524337768555  0.1288525760173798  0.4647127687931061  1.0000
  O   O6        1.0  0.5042928457260132  0.1288503706455231  0.021951192989945422  1.0000
  Ba  Ba2       1.0  0.6111202239990234  0.6094321608543396  0.9837838411331177  1.0000
