data_image664
_chemical_formula_structural       TiBaO3
_chemical_formula_sum              "Ti1 Ba1 O3"
_cell_length_a       3.9664165646378966
_cell_length_b       4.132478157974427
_cell_length_c       4.138275146484375
_cell_angle_alpha    89.40721037071846
_cell_angle_beta     89.97288665352039
_cell_angle_gamma    89.99434710785538

_space_group_name_H-M_alt    "P 1"
_space_group_IT_number       1

loop_
  _space_group_symop_operation_xyz
  'x, y, z'

loop_
  _atom_site_type_symbol
  _atom_site_label
  _atom_site_symmetry_multiplicity
  _atom_site_fract_x
  _atom_site_fract_y
  _atom_site_fract_z
  _atom_site_occupancy
  Ti  Ti1       1.0  0.340266078710556  0.22861056029796598  0.9948018789291382  1.0000
  Ba  Ba1       1.0  0.8399915099143981  0.7475407719612122  0.515093982219696  1.0000
  O   O1        1.0  0.34019079804420466  0.2643330991268158  0.5513948202133179  1.0000
  O   O2        1.0  0.8400579094886779  0.27420952916145325  0.04239039868116379  1.0000
  O   O3        1.0  0.3405889272689819  0.784568190574646  0.031691208481788635  1.0000
