data_image790
_chemical_formula_structural       OTi2BaO3BaTi2O4BaO3
_chemical_formula_sum              "O11 Ti4 Ba3"
_cell_length_a       4.100892441384784
_cell_length_b       5.714267334121026
_cell_length_c       11.249970436096191
_cell_angle_alpha    90.08810511201159
_cell_angle_beta     90.0948533468008
_cell_angle_gamma    90.01074639234741

_space_group_name_H-M_alt    "P 1"
_space_group_IT_number       1

loop_
  _space_group_symop_operation_xyz
  'x, y, z'

loop_
  _atom_site_type_symbol
  _atom_site_label
  _atom_site_symmetry_multiplicity
  _atom_site_fract_x
  _atom_site_fract_y
  _atom_site_fract_z
  _atom_site_occupancy
  O   O1        1.0  0.681499719619751  0.3040755093097687  0.8766384720802307  1.0000
  Ti  Ti1       1.0  0.734400749206543  0.561190664768219  0.7611843347549438  1.0000
  Ti  Ti2       1.0  0.6572480797767639  0.5594885349273682  0.5040215849876404  1.0000
  Ba  Ba1       1.0  0.2084023505449295  0.061576198786497116  0.7286347150802612  1.0000
  O   O2        1.0  0.17804847657680511  0.5598151683807373  0.24436433613300323  1.0000
  O   O3        1.0  0.17565427720546722  0.5607622265815735  0.7628587484359741  1.0000
  O   O4        1.0  0.6860567331314087  0.7797917127609253  0.6234180331230164  1.0000
  Ba  Ba2       1.0  0.212996706366539  0.561143696308136  0.003795253811404109  1.0000
  Ti  Ti3       1.0  0.7340906858444214  0.5606956481933594  0.24792200326919556  1.0000
  Ti  Ti4       1.0  0.7307894229888916  0.06027725711464882  0.004171180538833141  1.0000
  O   O5        1.0  0.6837207674980164  0.8172358870506287  0.12863574922084808  1.0000
  O   O6        1.0  0.6825554370880127  0.816674292087555  0.8774512410163879  1.0000
  O   O7        1.0  0.17178621888160706  0.06145776808261871  0.0014401674270629883  1.0000
  O   O8        1.0  0.6845735907554626  0.302764892578125  0.12796291708946228  1.0000
  Ba  Ba3       1.0  0.20993514358997345  0.05954846739768982  0.27791425585746765  1.0000
  O   O9        1.0  0.6898111701011658  0.7796475887298584  0.38171759247779846  1.0000
  O   O10       1.0  0.6873154640197754  0.3404959440231323  0.6233853697776794  1.0000
  O   O11       1.0  0.6876412630081177  0.3411009907722473  0.3808112144470215  1.0000
