data_image652
_chemical_formula_structural       TiOBaOBaTiO3
_chemical_formula_sum              "Ti2 O5 Ba2"
_cell_length_a       5.646610702786827
_cell_length_b       5.654495202448939
_cell_length_c       6.580828666687012
_cell_angle_alpha    85.69367072791039
_cell_angle_beta     118.98812608765876
_cell_angle_gamma    121.36511606763264

_space_group_name_H-M_alt    "P 1"
_space_group_IT_number       1

loop_
  _space_group_symop_operation_xyz
  'x, y, z'

loop_
  _atom_site_type_symbol
  _atom_site_label
  _atom_site_symmetry_multiplicity
  _atom_site_fract_x
  _atom_site_fract_y
  _atom_site_fract_z
  _atom_site_occupancy
  Ti  Ti1       1.0  0.7733650207519531  0.5206266641616821  0.6312665343284607  1.0000
  O   O1        1.0  0.5728777647018432  0.7091279625892638  0.6205206513404846  1.0000
  Ba  Ba1       1.0  0.314113974571228  0.31368839740753174  0.967523455619812  1.0000
  O   O2        1.0  0.40551239252090454  0.14879363775253296  0.38285693526268005  1.0000
  Ba  Ba2       1.0  0.8323628306388855  0.10381191223859786  0.27275946736335754  1.0000
  Ti  Ti2       1.0  0.37263709306716913  0.8967909216880797  0.6093028783798218  1.0000
  O   O3        1.0  0.8967087268829346  0.6397539377212523  0.3816766142845154  1.0000
  O   O4        1.0  0.7410436868667603  0.26872360706329346  0.8580160140991211  1.0000
  O   O5        1.0  0.25063225626945485  0.7784529924392699  0.8585379719734192  1.0000
