data_image856
_chemical_formula_structural       TiBaO3TiO3
_chemical_formula_sum              "Ti2 Ba1 O6"
_cell_length_a       4.856383972614719
_cell_length_b       4.86959107235442
_cell_length_c       5.866657733917236
_cell_angle_alpha    90.16753339556972
_cell_angle_beta     90.12006356781447
_cell_angle_gamma    74.1120601053223

_space_group_name_H-M_alt    "P 1"
_space_group_IT_number       1

loop_
  _space_group_symop_operation_xyz
  'x, y, z'

loop_
  _atom_site_type_symbol
  _atom_site_label
  _atom_site_symmetry_multiplicity
  _atom_site_fract_x
  _atom_site_fract_y
  _atom_site_fract_z
  _atom_site_occupancy
  Ti  Ti1       1.0  0.07579129189252853  0.502809464931488  0.8090376853942872  1.0000
  Ba  Ba1       1.0  0.8165019750595093  0.24315081536769867  0.3098948299884796  1.0000
  O   O1        1.0  0.3176663815975189  0.243419736623764  0.5848140120506287  1.0000
  O   O2        1.0  0.3165481984615326  0.7433789372444153  0.8083254694938661  1.0000
  O   O3        1.0  0.8174822926521302  0.2435694485902786  0.8073544502258302  1.0000
  Ti  Ti2       1.0  0.5579007863998413  0.9837068915367125  0.8087029457092286  1.0000
  O   O4        1.0  0.3168092370033264  0.2425093948841095  0.033489614725112915  1.0000
  O   O5        1.0  0.8174225687980652  0.7438952922821045  0.5849102735519409  1.0000
  O   O6        1.0  0.815733551979065  0.7428706884384154  0.033264219760894775  1.0000
