data_image808
_chemical_formula_structural       Ba2TiOTiO5
_chemical_formula_sum              "Ba2 Ti2 O6"
_cell_length_a       4.125896720944332
_cell_length_b       4.113590083752708
_cell_length_c       7.983803749084473
_cell_angle_alpha    90.02260360261755
_cell_angle_beta     90.0206160167459
_cell_angle_gamma    89.54717459693826

_space_group_name_H-M_alt    "P 1"
_space_group_IT_number       1

loop_
  _space_group_symop_operation_xyz
  'x, y, z'

loop_
  _atom_site_type_symbol
  _atom_site_label
  _atom_site_symmetry_multiplicity
  _atom_site_fract_x
  _atom_site_fract_y
  _atom_site_fract_z
  _atom_site_occupancy
  Ba  Ba1       1.0  0.08293396234512329  0.6031560301780701  0.8249474167823792  1.0000
  Ba  Ba2       1.0  0.08361569792032242  0.6020674705505371  0.32475051283836365  1.0000
  Ti  Ti1       1.0  0.5996045470237732  0.11883093416690826  0.5762964487075806  1.0000
  O   O1        1.0  0.5581338405609131  0.07763376086950302  0.8249906897544861  1.0000
  Ti  Ti2       1.0  0.597622275352478  0.11796855926513672  0.07560635358095169  1.0000
  O   O2        1.0  0.5572429299354553  0.07646987587213516  0.32487010955810547  1.0000
  O   O3        1.0  0.564714789390564  0.5674205422401428  0.07525821775197983  1.0000
  O   O4        1.0  0.048311978578567505  0.08455308526754379  0.5747760534286499  1.0000
  O   O5        1.0  0.0482335239648819  0.08459725230932236  0.0751953274011612  1.0000
  O   O6        1.0  0.5651381015777588  0.5682584643363953  0.5747350454330444  1.0000
