data_image209
_chemical_formula_structural       O2BaTi
_chemical_formula_sum              "O2 Ba1 Ti1"
_cell_length_a       3.268356858493254
_cell_length_b       3.268195438028205
_cell_length_c       6.527356147766113
_cell_angle_alpha    75.48039346057753
_cell_angle_beta     75.42791581096162
_cell_angle_gamma    59.93818347151726

_space_group_name_H-M_alt    "P 1"
_space_group_IT_number       1

loop_
  _space_group_symop_operation_xyz
  'x, y, z'

loop_
  _atom_site_type_symbol
  _atom_site_label
  _atom_site_symmetry_multiplicity
  _atom_site_fract_x
  _atom_site_fract_y
  _atom_site_fract_z
  _atom_site_occupancy
  O   O1        1.0  0.3400062024593354  0.8889629244804382  0.8770332336425781  1.0000
  O   O2        1.0  0.5648293495178223  0.11352213472127914  0.2015600949525833  1.0000
  Ba  Ba1       1.0  0.12532249093055725  0.6729073524475098  0.5188619494438171  1.0000
  Ti  Ti1       1.0  0.9514538645744323  0.500883936882019  0.04065757989883426  1.0000
