data_image418
_chemical_formula_structural       Ba2O2BaOBa2O3Ti2OBaO
_chemical_formula_sum              "Ba6 O8 Ti2"
_cell_length_a       6.292788741436077
_cell_length_b       7.554959187187607
_cell_length_c       8.459630012512207
_cell_angle_alpha    89.84262130468375
_cell_angle_beta     90.08193744820016
_cell_angle_gamma    90.03088179185465

_space_group_name_H-M_alt    "P 1"
_space_group_IT_number       1

loop_
  _space_group_symop_operation_xyz
  'x, y, z'

loop_
  _atom_site_type_symbol
  _atom_site_label
  _atom_site_symmetry_multiplicity
  _atom_site_fract_x
  _atom_site_fract_y
  _atom_site_fract_z
  _atom_site_occupancy
  Ba  Ba1       1.0  0.9452046155929565  0.7444893121719361  0.29188451170921326  1.0000
  Ba  Ba2       1.0  0.44488388299942017  0.9691703319549562  0.5633133053779602  1.0000
  O   O1        1.0  0.7238588333129883  0.8990193605422975  0.06965292245149612  1.0000
  O   O2        1.0  0.22388909757137299  0.265854299068451  0.569148600101471  1.0000
  Ba  Ba3       1.0  0.445795476436615  0.42220935225486755  0.7917483448982239  1.0000
  O   O3        1.0  0.9453506469726562  0.9709303975105287  0.5401061773300171  1.0000
  Ba  Ba4       1.0  0.944267213344574  0.7874748706817628  0.8207855224609375  1.0000
  Ba  Ba5       1.0  0.9439899325370789  0.1957042217254639  0.06510400772094725  1.0000
  O   O4        1.0  0.44449755549430847  0.19558809697628024  0.03997008875012398  1.0000
  O   O5        1.0  0.44413313269615173  0.8062970638275148  0.8209682703018188  1.0000
  O   O6        1.0  0.16401833295822144  0.8993568420410157  0.06854560226202011  1.0000
  Ti  Ti1       1.0  0.9456989169120789  0.2214809358119965  0.5137367248535156  1.0000
  Ti  Ti2       1.0  0.4440547227859497  0.9435579776763917  0.013532871380448341  1.0000
  O   O7        1.0  0.6666435599327087  0.26456716656684875  0.5707389712333679  1.0000
  Ba  Ba6       1.0  0.44546377658843994  0.377669632434845  0.32157662510871887  1.0000
  O   O8        1.0  0.9443999528884888  0.36096364259719854  0.32010468840599055  1.0000
