data_image955
_chemical_formula_structural       OBaTiO
_chemical_formula_sum              "O2 Ba1 Ti1"
_cell_length_a       3.3262018286921373
_cell_length_b       3.3273644712227375
_cell_length_c       6.290366172790527
_cell_angle_alpha    74.7152669035516
_cell_angle_beta     74.69079543408226
_cell_angle_gamma    60.01698962385641

_space_group_name_H-M_alt    "P 1"
_space_group_IT_number       1

loop_
  _space_group_symop_operation_xyz
  'x, y, z'

loop_
  _atom_site_type_symbol
  _atom_site_label
  _atom_site_symmetry_multiplicity
  _atom_site_fract_x
  _atom_site_fract_y
  _atom_site_fract_z
  _atom_site_occupancy
  O   O1        1.0  0.13814315199851993  0.5097636580467224  0.21957291662693024  1.0000
  Ba  Ba1       1.0  0.36120146512985224  0.7329918742179872  0.5515022277832031  1.0000
  Ti  Ti1       1.0  0.8610525131225586  0.23262444138526917  0.05043947324156763  1.0000
  O   O2        1.0  0.5838768482208253  0.9561289548873901  0.8826568722724915  1.0000
