data_image887
_chemical_formula_structural       OBaTiO
_chemical_formula_sum              "O2 Ba1 Ti1"
_cell_length_a       3.309978367609567
_cell_length_b       3.3091470438823443
_cell_length_c       6.291821002960205
_cell_angle_alpha    74.76548333375504
_cell_angle_beta     74.75984137754322
_cell_angle_gamma    60.055320020685144

_space_group_name_H-M_alt    "P 1"
_space_group_IT_number       1

loop_
  _space_group_symop_operation_xyz
  'x, y, z'

loop_
  _atom_site_type_symbol
  _atom_site_label
  _atom_site_symmetry_multiplicity
  _atom_site_fract_x
  _atom_site_fract_y
  _atom_site_fract_z
  _atom_site_occupancy
  O   O1        1.0  0.11394509673118589  0.28901621699333196  0.8826438784599303  1.0000
  Ba  Ba1       1.0  0.8912383913993835  0.0661717876791954  0.5507647395133972  1.0000
  Ti  Ti1       1.0  0.39142441749572743  0.5665243864059449  0.051041737198829665  1.0000
  O   O2        1.0  0.6685889959335327  0.8435689806938172  0.21893468499183652  1.0000
