data_image796
_chemical_formula_structural       OTiOTiBaO4Ba
_chemical_formula_sum              "O6 Ti2 Ba2"
_cell_length_a       4.101437498497457
_cell_length_b       4.101618418647948
_cell_length_c       7.998222827911377
_cell_angle_alpha    90.05708922418947
_cell_angle_beta     90.07742269446928
_cell_angle_gamma    89.86814571158324

_space_group_name_H-M_alt    "P 1"
_space_group_IT_number       1

loop_
  _space_group_symop_operation_xyz
  'x, y, z'

loop_
  _atom_site_type_symbol
  _atom_site_label
  _atom_site_symmetry_multiplicity
  _atom_site_fract_x
  _atom_site_fract_y
  _atom_site_fract_z
  _atom_site_occupancy
  O   O1        1.0  0.7436798214912415  0.45465523004531866  0.48022755980491644  1.0000
  Ti  Ti1       1.0  0.7116509079933167  0.9071324467658997  0.9805516600608827  1.0000
  O   O2        1.0  0.7493569254875183  0.9452028870582582  0.7300606369972229  1.0000
  Ti  Ti2       1.0  0.7117974758148193  0.9063562154769897  0.4808134734630585  1.0000
  Ba  Ba1       1.0  0.22736206650733948  0.422795832157135  0.730275571346283  1.0000
  O   O3        1.0  0.7501542568206787  0.9451484680175782  0.22947970032691958  1.0000
  O   O4        1.0  0.25769585371017456  0.9382532835006714  0.9783295989036561  1.0000
  O   O5        1.0  0.743471622467041  0.4543327689170838  0.9796944856643678  1.0000
  O   O6        1.0  0.25818395614624023  0.9391793012619019  0.4794920682907105  1.0000
  Ba  Ba2       1.0  0.22799549996852875  0.4226304292678833  0.22935363650321963  1.0000
