data_image762
_chemical_formula_structural       BaTiO2
_chemical_formula_sum              "Ba1 Ti1 O2"
_cell_length_a       3.2617142935485353
_cell_length_b       3.26149681701356
_cell_length_c       7.098229885101318
_cell_angle_alpha    76.64920968615633
_cell_angle_beta     76.70661694890043
_cell_angle_gamma    59.99014525322378

_space_group_name_H-M_alt    "P 1"
_space_group_IT_number       1

loop_
  _space_group_symop_operation_xyz
  'x, y, z'

loop_
  _atom_site_type_symbol
  _atom_site_label
  _atom_site_symmetry_multiplicity
  _atom_site_fract_x
  _atom_site_fract_y
  _atom_site_fract_z
  _atom_site_occupancy
  Ba  Ba1       1.0  0.12855404615402222  0.7402186393737793  0.5444483160972595  1.0000
  Ti  Ti1       1.0  0.6294130682945251  0.24145644903182983  0.04304363578557968  1.0000
  O   O1        1.0  0.007681179326027632  0.6188928484916687  0.9089913964271547  1.0000
  O   O2        1.0  0.25014603137969965  0.8620709180831909  0.17875757813453674  1.0000
