data_image530
_chemical_formula_structural       TiBa2OTiOTiO5BaO
_chemical_formula_sum              "Ti3 Ba3 O8"
_cell_length_a       4.014550248855808
_cell_length_b       4.016639234570244
_cell_length_c       12.384137153625488
_cell_angle_alpha    90.00177835355571
_cell_angle_beta     90.00806895769634
_cell_angle_gamma    90.00819190106628

_space_group_name_H-M_alt    "P 1"
_space_group_IT_number       1

loop_
  _space_group_symop_operation_xyz
  'x, y, z'

loop_
  _atom_site_type_symbol
  _atom_site_label
  _atom_site_symmetry_multiplicity
  _atom_site_fract_x
  _atom_site_fract_y
  _atom_site_fract_z
  _atom_site_occupancy
  Ti  Ti1       1.0  0.4031420350074768  0.6157441139221191  0.6417950987815857  1.0000
  Ba  Ba1       1.0  0.9043681025505066  0.1169169694185257  0.12938231229782104  1.0000
  Ba  Ba2       1.0  0.9029653668403625  0.11561902612447739  0.46591007709503174  1.0000
  O   O1        1.0  0.4029959440231323  0.6160212159156799  0.7977632880210876  1.0000
  Ti  Ti2       1.0  0.40326935052871704  0.6158685088157654  0.9669581651687622  1.0000
  O   O2        1.0  0.9034990668296814  0.6158905029296875  0.9665411114692688  1.0000
  Ti  Ti3       1.0  0.4037678837776184  0.6160476803779602  0.2908523678779602  1.0000
  O   O3        1.0  0.40386512875556946  0.11647414416074753  0.305605411529541  1.0000
  O   O4        1.0  0.9039686322212219  0.6161009669303894  0.3053004741668701  1.0000
  O   O5        1.0  0.4029291570186615  0.11556656658649445  0.6266303062438965  1.0000
  O   O6        1.0  0.9030092358589172  0.6150641441345215  0.6264414191246033  1.0000
  O   O7        1.0  0.404142290353775  0.6167908310890198  0.1339346319437027  1.0000
  Ba  Ba3       1.0  0.9031839966773987  0.11600573360919952  0.8036561608314514  1.0000
  O   O8        1.0  0.40322771668434143  0.11674172431230546  0.966420590877533  1.0000
