data_image765
_chemical_formula_structural       OBaO3BaOTi2O
_chemical_formula_sum              "O6 Ba2 Ti2"
_cell_length_a       5.583730033368979
_cell_length_b       5.589870581855015
_cell_length_c       6.031333923339844
_cell_angle_alpha    117.52411243568307
_cell_angle_beta     117.48728470430802
_cell_angle_gamma    89.89065883422163

_space_group_name_H-M_alt    "P 1"
_space_group_IT_number       1

loop_
  _space_group_symop_operation_xyz
  'x, y, z'

loop_
  _atom_site_type_symbol
  _atom_site_label
  _atom_site_symmetry_multiplicity
  _atom_site_fract_x
  _atom_site_fract_y
  _atom_site_fract_z
  _atom_site_occupancy
  O   O1        1.0  0.23891517519950867  0.6606887578964233  0.6065686941146851  1.0000
  Ba  Ba1       1.0  0.7077173590660095  0.13051383197307587  0.04522510990500458  1.0000
  O   O2        1.0  0.7381258606910706  0.1614401638507843  0.6061162948608398  1.0000
  O   O3        1.0  0.7373348474502563  0.659831166267395  0.6048191189765931  1.0000
  O   O4        1.0  0.7557307481765747  0.6782360076904297  0.14086580276489258  1.0000
  Ba  Ba2       1.0  0.20717789232730865  0.629421055316925  0.04307803139090546  1.0000
  O   O5        1.0  0.25402939319610596  0.1763334572315216  0.13815091550350192  1.0000
  Ti  Ti1       1.0  0.4500703811645508  0.3732745349407196  0.5302706360816957  1.0000
  Ti  Ti2       1.0  0.9520355463027954  0.874684751033783  0.5335335135459901  1.0000
  O   O6        1.0  0.23838160932064056  0.16102935373783112  0.6063416600227356  1.0000
