data_image991
_chemical_formula_structural       Ba2O2BaOTiOTiO3
_chemical_formula_sum              "Ba3 O7 Ti2"
_cell_length_a       3.992677388240897
_cell_length_b       3.9967830952223897
_cell_length_c       13.179096221923828
_cell_angle_alpha    89.73646650315017
_cell_angle_beta     90.17345515869474
_cell_angle_gamma    89.99780318345356

_space_group_name_H-M_alt    "P 1"
_space_group_IT_number       1

loop_
  _space_group_symop_operation_xyz
  'x, y, z'

loop_
  _atom_site_type_symbol
  _atom_site_label
  _atom_site_symmetry_multiplicity
  _atom_site_fract_x
  _atom_site_fract_y
  _atom_site_fract_z
  _atom_site_occupancy
  Ba  Ba1       1.0  0.3901737630367279  0.9599862098693848  0.27823981642723083  1.0000
  Ba  Ba2       1.0  0.38858211040496826  0.964499294757843  0.9716867804527284  1.0000
  O   O1        1.0  0.8900713324546814  0.963100016117096  0.1281670182943344  1.0000
  O   O2        1.0  0.8888538479804993  0.46504372358322144  0.9708068370819093  1.0000
  Ba  Ba3       1.0  0.3870640993118286  0.9703273177146912  0.6656043529510498  1.0000
  O   O3        1.0  0.8870781064033508  0.9676337838172911  0.8157007694244386  1.0000
  Ti  Ti1       1.0  0.8888559937477112  0.46112155914306635  0.13036473095417023  1.0000
  O   O4        1.0  0.3897169530391693  0.4630046486854553  0.12775006890296936  1.0000
  Ti  Ti2       1.0  0.8877482414245605  0.46776854991912836  0.8120472431182862  1.0000
  O   O5        1.0  0.8903809785842896  0.4598696529865265  0.2802306115627289  1.0000
  O   O6        1.0  0.8866272568702698  0.46984803676605225  0.6622928977012634  1.0000
  O   O7        1.0  0.38799479603767395  0.46744823455810547  0.8158796429634095  1.0000
