data_image406
_chemical_formula_structural       BaOTiO2
_chemical_formula_sum              "Ba1 O3 Ti1"
_cell_length_a       3.9726446272867144
_cell_length_b       4.110554716553263
_cell_length_c       4.143927574157715
_cell_angle_alpha    89.56099209474577
_cell_angle_beta     90.12593753944547
_cell_angle_gamma    90.12250194706097

_space_group_name_H-M_alt    "P 1"
_space_group_IT_number       1

loop_
  _space_group_symop_operation_xyz
  'x, y, z'

loop_
  _atom_site_type_symbol
  _atom_site_label
  _atom_site_symmetry_multiplicity
  _atom_site_fract_x
  _atom_site_fract_y
  _atom_site_fract_z
  _atom_site_occupancy
  Ba  Ba1       1.0  0.856812298297882  0.9274306893348694  0.7331835031509399  1.0000
  O   O1        1.0  0.35400602221488947  0.9611778855323792  0.2507408857345581  1.0000
  Ti  Ti1       1.0  0.3568748831748962  0.4086967706680298  0.2141363173723221  1.0000
  O   O2        1.0  0.8536160588264464  0.45246854424476624  0.2586100101470947  1.0000
  O   O3        1.0  0.35478571057319636  0.44294440746307373  0.7695562243461609  1.0000
