data_image323
_chemical_formula_structural       BaTiO2BaOBaTiOBaO4
_chemical_formula_sum              "Ba4 Ti2 O8"
_cell_length_a       6.104401368343101
_cell_length_b       6.445626503596195
_cell_length_c       8.051535606384277
_cell_angle_alpha    89.89088340745946
_cell_angle_beta     89.96391861666251
_cell_angle_gamma    58.58079944455373

_space_group_name_H-M_alt    "P 1"
_space_group_IT_number       1

loop_
  _space_group_symop_operation_xyz
  'x, y, z'

loop_
  _atom_site_type_symbol
  _atom_site_label
  _atom_site_symmetry_multiplicity
  _atom_site_fract_x
  _atom_site_fract_y
  _atom_site_fract_z
  _atom_site_occupancy
  Ba  Ba1       1.0  0.7289671897888184  0.40422987937927246  0.7475743293762207  1.0000
  Ti  Ti1       1.0  0.024317108094692157  0.7301196455955506  0.9967935681343079  1.0000
  O   O1        1.0  0.2325807511806488  0.07692833989858627  0.31530895829200745  1.0000
  O   O2        1.0  0.6827232837677002  0.6967335939407349  0.49706223607063293  1.0000
  Ba  Ba2       1.0  0.7285953164100647  0.40427568554878235  0.2471592128276825  1.0000
  O   O3        1.0  0.7684464454650879  0.6571602821350098  0.9969004392623901  1.0000
  Ba  Ba3       1.0  0.08969375491142265  0.748166859149933  0.496790885925293  1.0000
  Ti  Ti2       1.0  0.4325917661190033  0.025304632261395454  0.49686822295188904  1.0000
  O   O4        1.0  0.6141570210456848  0.18224194645881656  0.497543066740036  1.0000
  Ba  Ba4       1.0  0.3660910427570343  0.10965575277805328  0.9968442916870117  1.0000
  O   O5        1.0  0.23249083757400513  0.0766555443406105  0.6782955527305603  1.0000
  O   O6        1.0  0.849154531955719  0.0675911083817482  0.9976001381874084  1.0000
  O   O7        1.0  0.22411620616912845  0.578393816947937  0.17794278264045715  1.0000
  O   O8        1.0  0.2242383360862732  0.5795171856880188  0.8154135346412659  1.0000
