data_image304
_chemical_formula_structural       BaO2BaTiO3Ti
_chemical_formula_sum              "Ba2 O5 Ti2"
_cell_length_a       3.9579126329236645
_cell_length_b       5.836566086923973
_cell_length_c       5.838968753814697
_cell_angle_alpha    92.1132016693976
_cell_angle_beta     89.96679412628151
_cell_angle_gamma    89.95560627452402

_space_group_name_H-M_alt    "P 1"
_space_group_IT_number       1

loop_
  _space_group_symop_operation_xyz
  'x, y, z'

loop_
  _atom_site_type_symbol
  _atom_site_label
  _atom_site_symmetry_multiplicity
  _atom_site_fract_x
  _atom_site_fract_y
  _atom_site_fract_z
  _atom_site_occupancy
  Ba  Ba1       1.0  0.157481849193573  0.15263968706130981  0.9364926218986511  1.0000
  O   O1        1.0  0.6570208668708801  0.40591034293174744  0.6904931664466858  1.0000
  O   O2        1.0  0.15694929659366608  0.6683345437049866  0.9280792474746704  1.0000
  Ba  Ba2       1.0  0.15647728741168976  0.6592565774917603  0.4438238739967346  1.0000
  Ti  Ti1       1.0  0.6570343971252441  0.6406223177909851  0.9560060501098633  1.0000
  O   O3        1.0  0.15710149705410004  0.14352422952651978  0.4529224634170532  1.0000
  O   O4        1.0  0.6566923260688782  0.40634334087371826  0.19065962731838226  1.0000
  O   O5        1.0  0.6569533944129944  0.9059863686561583  0.1903003305196762  1.0000
  Ti  Ti2       1.0  0.6571130156517029  0.17145898938179013  0.42567694187164307  1.0000
