data_image617
_chemical_formula_structural       BaO5TiOTi
_chemical_formula_sum              "Ba1 O6 Ti2"
_cell_length_a       3.8831274782528684
_cell_length_b       3.886207597859462
_cell_length_c       8.354372024536133
_cell_angle_alpha    90.00540518427357
_cell_angle_beta     90.02119658219078
_cell_angle_gamma    89.97874695503764

_space_group_name_H-M_alt    "P 1"
_space_group_IT_number       1

loop_
  _space_group_symop_operation_xyz
  'x, y, z'

loop_
  _atom_site_type_symbol
  _atom_site_label
  _atom_site_symmetry_multiplicity
  _atom_site_fract_x
  _atom_site_fract_y
  _atom_site_fract_z
  _atom_site_occupancy
  Ba  Ba1       1.0  0.42668083310127264  0.6768152713775635  0.37680551409721375  1.0000
  O   O1        1.0  0.9259441494941713  0.6776880621910095  0.12799787521362305  1.0000
  O   O2        1.0  0.926260530948639  0.17779667675495148  0.8770944476127625  1.0000
  O   O3        1.0  0.42650324106216436  0.17767496407032016  0.12825265526771545  1.0000
  O   O4        1.0  0.9263274669647218  0.17756880819797516  0.378306120634079  1.0000
  O   O5        1.0  0.42620775103569036  0.17784698307514193  0.6258982419967651  1.0000
  Ti  Ti1       1.0  0.9256484508514405  0.17806413769721985  0.6581357717514038  1.0000
  O   O6        1.0  0.9265308976173402  0.6775662302970887  0.6261179447174072  1.0000
  Ti  Ti2       1.0  0.9266480207443238  0.1778378039598465  0.09544167667627335  1.0000
