data_image975
_chemical_formula_structural       BaTiOTiO2BaO2
_chemical_formula_sum              "Ba2 Ti2 O5"
_cell_length_a       4.02277137492894
_cell_length_b       4.021184921494202
_cell_length_c       8.241565704345703
_cell_angle_alpha    89.99938778746068
_cell_angle_beta     90.00517978800688
_cell_angle_gamma    90.01125865672132

_space_group_name_H-M_alt    "P 1"
_space_group_IT_number       1

loop_
  _space_group_symop_operation_xyz
  'x, y, z'

loop_
  _atom_site_type_symbol
  _atom_site_label
  _atom_site_symmetry_multiplicity
  _atom_site_fract_x
  _atom_site_fract_y
  _atom_site_fract_z
  _atom_site_occupancy
  Ba  Ba1       1.0  0.18095672130584717  0.6751132011413574  0.8133538365364075  1.0000
  Ti  Ti1       1.0  0.6807127594947815  0.17496448755264282  0.5725975036621094  1.0000
  O   O1        1.0  0.18095174431800842  0.17517715692520142  0.07284033298492432  1.0000
  Ti  Ti2       1.0  0.6810054779052734  0.17531247437000275  0.05419398471713066  1.0000
  O   O2        1.0  0.18053826689720154  0.17491215467453003  0.5542877316474915  1.0000
  O   O3        1.0  0.6808106303215027  0.6750966906547546  0.5541274547576904  1.0000
  Ba  Ba2       1.0  0.18061643838882446  0.6749380826950073  0.31350165605545044  1.0000
  O   O4        1.0  0.6806245446205139  0.6749910712242126  0.07302436232566833  1.0000
  O   O5        1.0  0.680819034576416  0.17505094408988953  0.813347339630127  1.0000
