data_image794
_chemical_formula_structural       TiOBaOTiO4
_chemical_formula_sum              "Ti2 O6 Ba1"
_cell_length_a       3.901147908126068
_cell_length_b       5.458127085333339
_cell_length_c       7.565849781036377
_cell_angle_alpha    69.6610022009629
_cell_angle_beta     75.11997021128353
_cell_angle_gamma    69.0837017195458

_space_group_name_H-M_alt    "P 1"
_space_group_IT_number       1

loop_
  _space_group_symop_operation_xyz
  'x, y, z'

loop_
  _atom_site_type_symbol
  _atom_site_label
  _atom_site_symmetry_multiplicity
  _atom_site_fract_x
  _atom_site_fract_y
  _atom_site_fract_z
  _atom_site_occupancy
  Ti  Ti1       1.0  0.08494125306606294  0.8514865040779114  0.8695096969604493  1.0000
  O   O1        1.0  0.8827095031738282  0.9964674115180969  0.12972521781921387  1.0000
  Ba  Ba1       1.0  0.8954195380210876  0.6180416345596313  0.48067128658294683  1.0000
  O   O2        1.0  0.6001774668693542  0.7751495242118835  0.9125577211380006  1.0000
  Ti  Ti2       1.0  0.7064356207847596  0.3846670091152191  0.09286705404520036  1.0000
  O   O3        1.0  0.19060026109218597  0.46184748411178594  0.0484985038638115  1.0000
  O   O4        1.0  0.20809552073478702  0.8428083658218384  0.6288931965827943  1.0000
  O   O5        1.0  0.5832569599151611  0.39260056614875793  0.332060992717743  1.0000
  O   O6        1.0  0.9094629287719728  0.23993326723575592  0.8307703733444215  1.0000
