data_image718
_chemical_formula_structural       TiOBa2O2
_chemical_formula_sum              "Ti1 O3 Ba2"
_cell_length_a       3.3703546992264477
_cell_length_b       4.328839718344065
_cell_length_c       9.404630661010742
_cell_angle_alpha    103.34460062491009
_cell_angle_beta     100.2643361110446
_cell_angle_gamma    89.97664307422578

_space_group_name_H-M_alt    "P 1"
_space_group_IT_number       1

loop_
  _space_group_symop_operation_xyz
  'x, y, z'

loop_
  _atom_site_type_symbol
  _atom_site_label
  _atom_site_symmetry_multiplicity
  _atom_site_fract_x
  _atom_site_fract_y
  _atom_site_fract_z
  _atom_site_occupancy
  Ti  Ti1       1.0  0.14075292646884918  0.06495148688554765  0.16974052786827087  1.0000
  O   O1        1.0  0.14080525934696198  0.5656152963638306  0.17016085982322693  1.0000
  Ba  Ba1       1.0  0.7679910659790039  0.6938574314117432  0.42784807085990906  1.0000
  Ba  Ba2       1.0  0.5131334662437439  0.4358725845813751  0.9105062484741211  1.0000
  O   O2        1.0  0.5743682980537415  0.9955399036407472  0.03258104994893074  1.0000
  O   O3        1.0  0.7083976864814758  0.13486087322235107  0.30875107645988464  1.0000
