data_image226
_chemical_formula_structural       Ti2Ba2O6
_chemical_formula_sum              "Ti2 Ba2 O6"
_cell_length_a       5.120520401035635
_cell_length_b       5.879635289831557
_cell_length_c       5.878222942352295
_cell_angle_alpha    120.25698269227773
_cell_angle_beta     90.01915435606477
_cell_angle_gamma    90.04943258390877

_space_group_name_H-M_alt    "P 1"
_space_group_IT_number       1

loop_
  _space_group_symop_operation_xyz
  'x, y, z'

loop_
  _atom_site_type_symbol
  _atom_site_label
  _atom_site_symmetry_multiplicity
  _atom_site_fract_x
  _atom_site_fract_y
  _atom_site_fract_z
  _atom_site_occupancy
  Ti  Ti1       1.0  0.4237554371356964  0.41927388310432434  0.6483114957809448  1.0000
  Ti  Ti2       1.0  0.9235097169876099  0.41972553730010986  0.6473173499107361  1.0000
  Ba  Ba1       1.0  0.7646946907043457  0.08593587577342987  0.9819856286048889  1.0000
  Ba  Ba2       1.0  0.2649412453174591  0.75226891040802  0.3153337240219116  1.0000
  O   O1        1.0  0.6649295687675476  0.5668706893920898  0.5010327696800232  1.0000
  O   O2        1.0  0.666122317314148  0.12253987789154053  0.5001236200332642  1.0000
  O   O3        1.0  0.16585630178451538  0.7157213091850281  0.796568751335144  1.0000
  O   O4        1.0  0.6671606302261353  0.5674498677253723  0.9447373747825623  1.0000
  O   O5        1.0  0.1661064475774765  0.27108779549598694  0.7962769269943237  1.0000
  O   O6        1.0  0.1666765958070755  0.2708839476108551  0.35173851251602173  1.0000
