data_image861
_chemical_formula_structural       BaOTiBaO3
_chemical_formula_sum              "Ba2 O4 Ti1"
_cell_length_a       4.038684712632493
_cell_length_b       4.040715705529168
_cell_length_c       7.312228679656982
_cell_angle_alpha    106.01721902190158
_cell_angle_beta     106.03221755996712
_cell_angle_gamma    89.99439500984649

_space_group_name_H-M_alt    "P 1"
_space_group_IT_number       1

loop_
  _space_group_symop_operation_xyz
  'x, y, z'

loop_
  _atom_site_type_symbol
  _atom_site_label
  _atom_site_symmetry_multiplicity
  _atom_site_fract_x
  _atom_site_fract_y
  _atom_site_fract_z
  _atom_site_occupancy
  Ba  Ba1       1.0  0.3601771891117096  0.05436176061630248  0.9229499101638794  1.0000
  O   O1        1.0  0.004029521718621254  0.19790536165237427  0.20928339660167694  1.0000
  Ti  Ti1       1.0  0.00369680835865438  0.6975701451301575  0.2095930278301239  1.0000
  Ba  Ba2       1.0  0.6472207307815552  0.34115818142890925  0.4960683584213257  1.0000
  O   O2        1.0  0.5038537383079529  0.6979855298995971  0.20948480069637299  1.0000
  O   O3        1.0  0.855474591255188  0.5496582388877869  0.9134443998336792  1.0000
  O   O4        1.0  0.1517782062292099  0.8456453084945678  0.504709780216217  1.0000
