data_image986
_chemical_formula_structural       Ba2O3TiO2TiO
_chemical_formula_sum              "Ba2 O6 Ti2"
_cell_length_a       4.270149354328819
_cell_length_b       5.626960963760283
_cell_length_c       5.625926494598389
_cell_angle_alpha    90.1012873733675
_cell_angle_beta     90.04887933683283
_cell_angle_gamma    90.01109473202821

_space_group_name_H-M_alt    "P 1"
_space_group_IT_number       1

loop_
  _space_group_symop_operation_xyz
  'x, y, z'

loop_
  _atom_site_type_symbol
  _atom_site_label
  _atom_site_symmetry_multiplicity
  _atom_site_fract_x
  _atom_site_fract_y
  _atom_site_fract_z
  _atom_site_occupancy
  Ba  Ba1       1.0  0.9382863640785217  0.10365360975265504  0.5135142803192139  1.0000
  Ba  Ba2       1.0  0.9388062953948975  0.6037126779556274  0.01353535708039999  1.0000
  O   O1        1.0  0.8779088258743286  0.6038849353790283  0.5138766765594482  1.0000
  O   O2        1.0  0.40149521827697754  0.8537706136703491  0.26360735297203064  1.0000
  O   O3        1.0  0.40167832374572754  0.3536507189273834  0.7646973133087158  1.0000
  Ti  Ti1       1.0  0.45763838291168213  0.10319776833057404  0.01338289212435484  1.0000
  O   O4        1.0  0.4015379846096039  0.3531481623649597  0.263740599155426  1.0000
  O   O5        1.0  0.4013882577419281  0.8532225489616394  0.7636060118675232  1.0000
  Ti  Ti2       1.0  0.45737606287002563  0.6028429269790649  0.513809323310852  1.0000
  O   O6        1.0  0.8785529136657715  0.10361729562282564  0.013823899440467358  1.0000
