data_image1055
_chemical_formula_structural       TiBaTiBaO6BaO
_chemical_formula_sum              "Ti2 Ba3 O7"
_cell_length_a       4.077616098092836
_cell_length_b       4.0755329061613494
_cell_length_c       11.12261962890625
_cell_angle_alpha    100.38774380844096
_cell_angle_beta     100.34698125527602
_cell_angle_gamma    89.69937844528802

_space_group_name_H-M_alt    "P 1"
_space_group_IT_number       1

loop_
  _space_group_symop_operation_xyz
  'x, y, z'

loop_
  _atom_site_type_symbol
  _atom_site_label
  _atom_site_symmetry_multiplicity
  _atom_site_fract_x
  _atom_site_fract_y
  _atom_site_fract_z
  _atom_site_occupancy
  Ti  Ti1       1.0  0.18399617075920105  0.6591662764549255  0.8427936434745789  1.0000
  Ba  Ba1       1.0  0.7573437094688416  0.2330041378736496  0.017791476100683202  1.0000
  Ti  Ti2       1.0  0.9527507424354553  0.42960473895072937  0.46331319212913513  1.0000
  Ba  Ba2       1.0  0.3813784420490265  0.8562908172607422  0.28777876496315  1.0000
  O   O1        1.0  0.15957844257354736  0.12539906799793243  0.841463029384613  1.0000
  O   O2        1.0  0.8897257447242737  0.36496463418006897  0.2812980115413666  1.0000
  O   O3        1.0  0.649982750415802  0.6341175436973572  0.8417906165122986  1.0000
  O   O4        1.0  0.06819657236337662  0.5444471836090089  0.6518810987472534  1.0000
  O   O5        1.0  0.24740752577781677  0.7234324216842651  0.023531917482614517  1.0000
  O   O6        1.0  0.4874924123287201  0.4535327255725861  0.4628094434738159  1.0000
  Ba  Ba3       1.0  0.5683512091636658  0.043996188789606094  0.6522587537765503  1.0000
  O   O7        1.0  0.9796546101570129  0.9629201292991638  0.4627832770347595  1.0000
