data_image901
_chemical_formula_structural       BaOBaOTiO2
_chemical_formula_sum              "Ba2 O4 Ti1"
_cell_length_a       4.037851305861332
_cell_length_b       4.040019181826235
_cell_length_c       7.303283214569092
_cell_angle_alpha    106.05925838004232
_cell_angle_beta     106.02715024118302
_cell_angle_gamma    89.99290578184016

_space_group_name_H-M_alt    "P 1"
_space_group_IT_number       1

loop_
  _space_group_symop_operation_xyz
  'x, y, z'

loop_
  _atom_site_type_symbol
  _atom_site_label
  _atom_site_symmetry_multiplicity
  _atom_site_fract_x
  _atom_site_fract_y
  _atom_site_fract_z
  _atom_site_occupancy
  Ba  Ba1       1.0  0.14214451611042023  0.515703558921814  0.05707292258739471  1.0000
  O   O1        1.0  0.6463664174079895  0.02009602263569832  0.06547979265451431  1.0000
  Ba  Ba2       1.0  0.8549630641937256  0.2281171977519989  0.4833476245403289  1.0000
  O   O2        1.0  0.3505069613456726  0.7234342098236084  0.474524438381195  1.0000
  Ti  Ti1       1.0  0.4987052679061889  0.8721222281455994  0.7704647779464721  1.0000
  O   O3        1.0  0.4984694421291351  0.37218338251113897  0.7700576782226561  1.0000
  O   O4        1.0  0.9984595775604247  0.87208890914917  0.7700856924057006  1.0000
