data_image962
_chemical_formula_structural       BaOBa2O2BaOTiO3TiO
_chemical_formula_sum              "Ba4 O8 Ti2"
_cell_length_a       4.03896754509511
_cell_length_b       4.0445313541356915
_cell_length_c       13.53620719909668
_cell_angle_alpha    90.00377276908195
_cell_angle_beta     90.02589575096755
_cell_angle_gamma    90.26880460267869

_space_group_name_H-M_alt    "P 1"
_space_group_IT_number       1

loop_
  _space_group_symop_operation_xyz
  'x, y, z'

loop_
  _atom_site_type_symbol
  _atom_site_label
  _atom_site_symmetry_multiplicity
  _atom_site_fract_x
  _atom_site_fract_y
  _atom_site_fract_z
  _atom_site_occupancy
  Ba  Ba1       1.0  0.4123145341873169  0.8912634849548339  0.330181747674942  1.0000
  O   O1        1.0  0.39015892148017883  0.40470293164253235  0.4736339449882507  1.0000
  Ba  Ba2       1.0  0.4144136905670166  0.8924473524093627  0.9159308075904845  1.0000
  Ba  Ba3       1.0  0.4148190915584564  0.8892689943313599  0.6233623623847961  1.0000
  O   O2        1.0  0.39089563488960266  0.4044497609138489  0.772788941860199  1.0000
  O   O3        1.0  0.9010894894599915  0.9159457087516785  0.7729600667953491  1.0000
  Ba  Ba4       1.0  0.9077103137969971  0.3984359800815582  0.1233619526028633  1.0000
  O   O4        1.0  0.8991501331329346  0.40542128682136536  0.32532578706741333  1.0000
  Ti  Ti1       1.0  0.9265662431716919  0.37744784355163574  0.7723082900047302  1.0000
  O   O5        1.0  0.8969736695289612  0.40760004520416254  0.6232535243034363  1.0000
  O   O6        1.0  0.9008010029792786  0.9159003496170044  0.4735414087772369  1.0000
  O   O7        1.0  0.900639533996582  0.40608569979667664  0.9202257394790648  1.0000
  Ti  Ti2       1.0  0.9267485737800598  0.3779021203517914  0.47345337271690363  1.0000
  O   O8        1.0  0.40577128529548645  0.9005609750747681  0.12275680154561995  1.0000
