data_image504
_chemical_formula_structural       Ba2Ti2OTi2O2BaO2TiO3
_chemical_formula_sum              "Ba3 Ti5 O8"
_cell_length_a       4.033347617066812
_cell_length_b       5.724252623157339
_cell_length_c       11.518180847167969
_cell_angle_alpha    89.90403834140422
_cell_angle_beta     89.9958839004656
_cell_angle_gamma    89.99904627804708

_space_group_name_H-M_alt    "P 1"
_space_group_IT_number       1

loop_
  _space_group_symop_operation_xyz
  'x, y, z'

loop_
  _atom_site_type_symbol
  _atom_site_label
  _atom_site_symmetry_multiplicity
  _atom_site_fract_x
  _atom_site_fract_y
  _atom_site_fract_z
  _atom_site_occupancy
  Ba  Ba1       1.0  0.34527382254600525  0.8461232781410218  0.2291342616081238  1.0000
  Ba  Ba2       1.0  0.3454636037349701  0.3436661660671234  0.4748861491680146  1.0000
  Ti  Ti1       1.0  0.8452919721603394  0.8454557657241821  0.48299399018287664  1.0000
  Ti  Ti2       1.0  0.8457013368606567  0.8459226489067078  0.7372915148735047  1.0000
  O   O1        1.0  0.8446874618530273  0.07783675193786621  0.6106966137886047  1.0000
  Ti  Ti3       1.0  0.8455565571784973  0.8467158079147339  0.9886113405227662  1.0000
  Ti  Ti4       1.0  0.846595823764801  0.34613150358200073  0.23793485760688785  1.0000
  O   O2        1.0  0.8465086221694946  0.5934307575225831  0.11168398708105089  1.0000
  O   O3        1.0  0.8447763919830322  0.6149763464927673  0.6109965443611145  1.0000
  Ba  Ba3       1.0  0.3456321656703949  0.3454419076442719  0.7578341960906984  1.0000
  O   O4        1.0  0.8463077545166016  0.10043080896139145  0.1110089272260666  1.0000
  O   O5        1.0  0.8456776738166809  0.5963336825370789  0.3597445487976075  1.0000
  Ti  Ti5       1.0  0.8457971811294556  0.3476169705390931  0.9896017909049989  1.0000
  O   O6        1.0  0.845323383808136  0.599764108657837  0.8664496541023256  1.0000
  O   O7        1.0  0.8454185128211975  0.0935252457857132  0.8668287992477418  1.0000
  O   O8        1.0  0.8457056283950806  0.09405714273452759  0.3595330715179444  1.0000
