data_image531
_chemical_formula_structural       BaTiO2TiBaOBaOBaO4
_chemical_formula_sum              "Ba4 Ti2 O8"
_cell_length_a       4.012313464482999
_cell_length_b       6.013065341421728
_cell_length_c       9.383779525756836
_cell_angle_alpha    90.00189446676035
_cell_angle_beta     102.28713669956456
_cell_angle_gamma    89.99783733451883

_space_group_name_H-M_alt    "P 1"
_space_group_IT_number       1

loop_
  _space_group_symop_operation_xyz
  'x, y, z'

loop_
  _atom_site_type_symbol
  _atom_site_label
  _atom_site_symmetry_multiplicity
  _atom_site_fract_x
  _atom_site_fract_y
  _atom_site_fract_z
  _atom_site_occupancy
  Ba  Ba1       1.0  0.39247235655784607  0.8110412359237671  0.0417451597750187  1.0000
  Ti  Ti1       1.0  0.7474355697631836  0.8109049201011658  0.7526276111602783  1.0000
  O   O1        1.0  0.6680110096931458  0.5606429576873779  0.5938724279403687  1.0000
  O   O2        1.0  0.24270693957805634  0.8106767535209656  0.7440192103385925  1.0000
  Ti  Ti2       1.0  0.5889407992362976  0.31064051389694214  0.43555283546447754  1.0000
  Ba  Ba2       1.0  0.24365076422691345  0.31061112880706787  0.7443439364433289  1.0000
  O   O3        1.0  0.825523853302002  0.5819205045700073  0.9090498685836792  1.0000
  Ba  Ba3       1.0  0.9443973302841187  0.31054940819740295  0.14603064954280853  1.0000
  O   O4        1.0  0.5113375782966614  0.5395145416259766  0.2790721356868744  1.0000
  Ba  Ba4       1.0  0.09306170791387558  0.810849964618683  0.44381776452064514  1.0000
  O   O5        1.0  0.6681722402572632  0.060803685337305076  0.5938525199890138  1.0000
  O   O6        1.0  0.825471818447113  0.03945199400186539  0.9090151190757751  1.0000
  O   O7        1.0  0.09441497176885605  0.3107863664627076  0.44417041540145874  1.0000
  O   O8        1.0  0.511346161365509  0.08205923438072205  0.27886173129081726  1.0000
