data_image913
_chemical_formula_structural       BaOTiO
_chemical_formula_sum              "Ba1 O2 Ti1"
_cell_length_a       3.2995585010600226
_cell_length_b       3.3026934416251255
_cell_length_c       6.257915019989014
_cell_angle_alpha    74.76044944559182
_cell_angle_beta     74.75091578048865
_cell_angle_gamma    60.12495560687815

_space_group_name_H-M_alt    "P 1"
_space_group_IT_number       1

loop_
  _space_group_symop_operation_xyz
  'x, y, z'

loop_
  _atom_site_type_symbol
  _atom_site_label
  _atom_site_symmetry_multiplicity
  _atom_site_fract_x
  _atom_site_fract_y
  _atom_site_fract_z
  _atom_site_occupancy
  Ba  Ba1       1.0  0.8329153656959534  0.22674304246902469  0.6496018171310424  1.0000
  O   O1        1.0  0.05589921772480011  0.4490169286727905  0.9819664359092711  1.0000
  Ti  Ti1       1.0  0.3326815962791443  0.7271595597267151  0.1492445468902588  1.0000
  O   O2        1.0  0.6101022958755493  0.004620213992893697  0.3172092139720916  1.0000
