data_image662
_chemical_formula_structural       OBaOTiO
_chemical_formula_sum              "O3 Ba1 Ti1"
_cell_length_a       4.069997814259676
_cell_length_b       4.0729246483446655
_cell_length_c       4.0743408203125
_cell_angle_alpha    89.86397247136131
_cell_angle_beta     89.8821475852313
_cell_angle_gamma    89.83947941039357

_space_group_name_H-M_alt    "P 1"
_space_group_IT_number       1

loop_
  _space_group_symop_operation_xyz
  'x, y, z'

loop_
  _atom_site_type_symbol
  _atom_site_label
  _atom_site_symmetry_multiplicity
  _atom_site_fract_x
  _atom_site_fract_y
  _atom_site_fract_z
  _atom_site_occupancy
  O   O1        1.0  0.2581116557121277  0.5947716236114502  0.7153535485267639  1.0000
  Ba  Ba1       1.0  0.7418426275253296  0.5666394233703613  0.20040366053581238  1.0000
  O   O2        1.0  0.2578909993171692  0.08341115713119507  0.22700971364974976  1.0000
  Ti  Ti1       1.0  0.2263314425945282  0.052068937569856644  0.6844033002853394  1.0000
  O   O3        1.0  0.7695701122283936  0.0843803882598877  0.715952455997467  1.0000
