data_image921
_chemical_formula_structural       Ti2BaOTiBaO8BaO
_chemical_formula_sum              "Ti3 Ba3 O10"
_cell_length_a       3.976544542839637
_cell_length_b       3.9477186455286497
_cell_length_c       14.96456527709961
_cell_angle_alpha    90.00647752373726
_cell_angle_beta     97.54565378936054
_cell_angle_gamma    89.94016321636391

_space_group_name_H-M_alt    "P 1"
_space_group_IT_number       1

loop_
  _space_group_symop_operation_xyz
  'x, y, z'

loop_
  _atom_site_type_symbol
  _atom_site_label
  _atom_site_symmetry_multiplicity
  _atom_site_fract_x
  _atom_site_fract_y
  _atom_site_fract_z
  _atom_site_occupancy
  Ti  Ti1       1.0  0.16078762710094452  0.4291096329689026  0.6481469869613647  1.0000
  Ti  Ti2       1.0  0.8611075282096863  0.4269493818283081  0.04805079847574234  1.0000
  Ba  Ba1       1.0  0.5837446451187134  0.9297727346420288  0.49152854084968567  1.0000
  O   O1        1.0  0.0062227072194218636  0.9271972179412842  0.33666306734085083  1.0000
  Ti  Ti3       1.0  0.00964663177728653  0.42865583300590515  0.3428305983543396  1.0000
  Ba  Ba2       1.0  0.436180055141449  0.9277721047401428  0.196229949593544  1.0000
  O   O2        1.0  0.8004210591316223  0.4265526533126831  0.9249126315116882  1.0000
  O   O3        1.0  0.21884386241436005  0.4280818998813629  0.7634429931640625  1.0000
  O   O4        1.0  0.14873665571212769  0.9289766550064087  0.6234294772148132  1.0000
  O   O5        1.0  0.36771130561828613  0.42706039547920227  0.05811489373445511  1.0000
  O   O6        1.0  0.5059819221496582  0.4277280867099762  0.33653563261032104  1.0000
  O   O7        1.0  0.938133180141449  0.4271779954433441  0.19975630939006808  1.0000
  O   O8        1.0  0.07227448374032974  0.4284899830818176  0.47018128633499146  1.0000
  O   O9        1.0  0.8668065667152405  0.9268398284912109  0.05709706246852875  1.0000
  Ba  Ba3       1.0  0.28409355878829956  0.9265538454055786  0.8915640115737915  1.0000
  O   O10       1.0  0.6485093235969543  0.42868268489837646  0.6211913824081421  1.0000
