data_image343
_chemical_formula_structural       BaTi2OBa2O6
_chemical_formula_sum              "Ba3 Ti2 O7"
_cell_length_a       3.979025672723491
_cell_length_b       4.01498187055811
_cell_length_c       12.971912384033203
_cell_angle_alpha    89.75455283710038
_cell_angle_beta     90.04110658111425
_cell_angle_gamma    90.26331995649794

_space_group_name_H-M_alt    "P 1"
_space_group_IT_number       1

loop_
  _space_group_symop_operation_xyz
  'x, y, z'

loop_
  _atom_site_type_symbol
  _atom_site_label
  _atom_site_symmetry_multiplicity
  _atom_site_fract_x
  _atom_site_fract_y
  _atom_site_fract_z
  _atom_site_occupancy
  Ba  Ba1       1.0  0.4920982122421264  0.6419975161552429  0.5336746573448181  1.0000
  Ti  Ti1       1.0  0.9947891235351561  0.17701292037963867  0.04233337938785553  1.0000
  Ti  Ti2       1.0  0.9940170645713805  0.1464129537343979  0.3451806902885437  1.0000
  O   O1        1.0  0.9952048063278197  0.6339352130889893  0.032677479088306434  1.0000
  Ba  Ba2       1.0  0.49443703889846796  0.6555454134941101  0.19062528014183044  1.0000
  Ba  Ba3       1.0  0.992570400238037  0.1378389596939087  0.7665629386901855  1.0000
  O   O2        1.0  0.49573910236358637  0.14233566820621493  0.032052844762802124  1.0000
  O   O3        1.0  0.49410596489906305  0.14637801051139832  0.36497050523757935  1.0000
  O   O4        1.0  0.49224323034286493  0.1414242833852768  0.6554460525512695  1.0000
  O   O5        1.0  0.991617202758789  0.6416881680488586  0.6564643383026123  1.0000
  O   O6        1.0  0.9950742721557616  0.14677074551582336  0.19700758159160614  1.0000
  O   O7        1.0  0.992850363254547  0.6459771990776062  0.3627680242061615  1.0000
