data_image201
_chemical_formula_structural       BaOTiO
_chemical_formula_sum              "Ba1 O2 Ti1"
_cell_length_a       3.2926407412222414
_cell_length_b       3.2946206034343914
_cell_length_c       7.101120471954346
_cell_angle_alpha    76.34768408494295
_cell_angle_beta     76.35166622544773
_cell_angle_gamma    59.74625599267355

_space_group_name_H-M_alt    "P 1"
_space_group_IT_number       1

loop_
  _space_group_symop_operation_xyz
  'x, y, z'

loop_
  _atom_site_type_symbol
  _atom_site_label
  _atom_site_symmetry_multiplicity
  _atom_site_fract_x
  _atom_site_fract_y
  _atom_site_fract_z
  _atom_site_occupancy
  Ba  Ba1       1.0  0.08474593609571457  0.4351988136768341  0.7252227663993835  1.0000
  O   O1        1.0  0.20561069250106817  0.556524395942688  0.3600001633167267  1.0000
  Ti  Ti1       1.0  0.5838761925697327  0.9350997209548949  0.22679278254508972  1.0000
  O   O2        1.0  0.96275395154953  0.31369340419769287  0.09195028990507124  1.0000
