data_image819
_chemical_formula_structural       TiOBaOBaOTiBaO5
_chemical_formula_sum              "Ti2 O8 Ba3"
_cell_length_a       6.138509448715092
_cell_length_b       6.235903836414826
_cell_length_c       6.536104679107666
_cell_angle_alpha    103.66356340240641
_cell_angle_beta     108.92178420007947
_cell_angle_gamma    84.44524868352396

_space_group_name_H-M_alt    "P 1"
_space_group_IT_number       1

loop_
  _space_group_symop_operation_xyz
  'x, y, z'

loop_
  _atom_site_type_symbol
  _atom_site_label
  _atom_site_symmetry_multiplicity
  _atom_site_fract_x
  _atom_site_fract_y
  _atom_site_fract_z
  _atom_site_occupancy
  Ti  Ti1       1.0  0.9530625939369202  0.998850643634796  0.19195997714996338  1.0000
  O   O1        1.0  0.5383738875389099  0.500907301902771  0.5628501772880554  1.0000
  Ba  Ba1       1.0  0.8142508268356323  0.4506388306617737  0.9769302606582642  1.0000
  O   O2        1.0  0.30037161707878113  0.1342123746871948  0.7357909679412842  1.0000
  Ba  Ba2       1.0  0.20180213451385498  0.6816097497940063  0.7323775291442871  1.0000
  O   O3        1.0  0.8668785691261292  0.8626996278762816  0.903234601020813  1.0000
  Ti  Ti2       1.0  0.4517064094543457  0.3636651337146759  0.27428215742111206  1.0000
  Ba  Ba3       1.0  0.5910975933074951  0.9127574563026428  0.4893254339694977  1.0000
  O   O4        1.0  0.10009845346212387  0.22825792431831357  0.7280648350715637  1.0000
  O   O5        1.0  0.7025775909423828  0.18081097304821014  0.2324015498161316  1.0000
  O   O6        1.0  0.9726685881614685  0.7798522114753722  0.33852288126945496  1.0000
  O   O7        1.0  0.4304833710193634  0.5834154486656189  0.1267705112695694  1.0000
  O   O8        1.0  0.20265813171863556  0.18236437439918515  0.23373043537139893  1.0000
