data_image648
_chemical_formula_structural       OTiBa2OBaTiO5
_chemical_formula_sum              "O7 Ti2 Ba3"
_cell_length_a       4.071078718911621
_cell_length_b       4.073686023345876
_cell_length_c       11.081971168518066
_cell_angle_alpha    100.51280464047387
_cell_angle_beta     100.55010420983652
_cell_angle_gamma    90.03139390463697

_space_group_name_H-M_alt    "P 1"
_space_group_IT_number       1

loop_
  _space_group_symop_operation_xyz
  'x, y, z'

loop_
  _atom_site_type_symbol
  _atom_site_label
  _atom_site_symmetry_multiplicity
  _atom_site_fract_x
  _atom_site_fract_y
  _atom_site_fract_z
  _atom_site_occupancy
  O   O1        1.0  0.8290851712226868  0.7815454006195068  0.3962702751159668  1.0000
  Ti  Ti1       1.0  0.8501262664794922  0.24628596007823944  0.39463362097740173  1.0000
  Ba  Ba1       1.0  0.4272644817829132  0.8556042909622192  0.5846102833747864  1.0000
  Ba  Ba2       1.0  0.24929730594158173  0.6740617752075195  0.2185078114271164  1.0000
  O   O2        1.0  0.024741152301430702  0.9702481031417847  0.7738118171691895  1.0000
  Ba  Ba3       1.0  0.6064696311950684  0.040373291820287704  0.9516025185585022  1.0000
  Ti  Ti2       1.0  0.004539920948445797  0.43921852111816406  0.7758622169494629  1.0000
  O   O3        1.0  0.3198254108428955  0.27188390493392944  0.3961082100868225  1.0000
  O   O4        1.0  0.7362096905708313  0.18259558081626892  0.21354125440120697  1.0000
  O   O5        1.0  0.11808127164840698  0.5538603067398071  0.9571288824081421  1.0000
  O   O6        1.0  0.5341358780860901  0.459258109331131  0.7736109495162964  1.0000
  O   O7        1.0  0.9273417592048645  0.3671720325946808  0.5852172374725342  1.0000
