data_image782
_chemical_formula_structural       BaOTiBa2OBaTi2O7
_chemical_formula_sum              "Ba4 O9 Ti3"
_cell_length_a       4.032091582395611
_cell_length_b       4.024483735576196
_cell_length_c       15.234399795532227
_cell_angle_alpha    97.67847395665584
_cell_angle_beta     97.6702162575619
_cell_angle_gamma    90.17860517285123

_space_group_name_H-M_alt    "P 1"
_space_group_IT_number       1

loop_
  _space_group_symop_operation_xyz
  'x, y, z'

loop_
  _atom_site_type_symbol
  _atom_site_label
  _atom_site_symmetry_multiplicity
  _atom_site_fract_x
  _atom_site_fract_y
  _atom_site_fract_z
  _atom_site_occupancy
  Ba  Ba1       1.0  0.47749340534210205  0.0231181588023901  0.9524799585342408  1.0000
  O   O1        1.0  0.7115930914878845  0.2575160562992096  0.4215134680271149  1.0000
  Ti  Ti1       1.0  0.7764336466789246  0.32138302922248835  0.550024688243866  1.0000
  Ba  Ba2       1.0  0.20516450703144073  0.7503718137741088  0.40730264782905584  1.0000
  Ba  Ba3       1.0  0.3478188216686249  0.8927967548370361  0.692673146724701  1.0000
  O   O2        1.0  0.1395598202943802  0.18527504801750183  0.2765161693096161  1.0000
  Ba  Ba4       1.0  0.07447834312915802  0.6201381087303162  0.14741344749927524  1.0000
  Ti  Ti2       1.0  0.6366654634475708  0.18228082358837125  0.27005696296691895  1.0000
  Ti  Ti3       1.0  0.9153812527656555  0.4613462388515472  0.8289021253585817  1.0000
  O   O3        1.0  0.5717720985412598  0.11731672286987303  0.1404656320810318  1.0000
  O   O4        1.0  0.8404820561408997  0.38591027259826655  0.6788879036903382  1.0000
  O   O5        1.0  0.6393210291862488  0.6849623322486876  0.2761017084121704  1.0000
  O   O6        1.0  0.9126400947570801  0.9584887623786925  0.8232721090316774  1.0000
  O   O7        1.0  0.7760686874389648  0.8215672969818115  0.5499677062034607  1.0000
  O   O8        1.0  0.9805343151092529  0.5262359976768493  0.9593353271484376  1.0000
  O   O9        1.0  0.4126952290534973  0.45791399478912354  0.8231878876686097  1.0000
