data_image336
_chemical_formula_structural       TiOBaTi2O2BaTiO5TiO2BaO2
_chemical_formula_sum              "Ti5 O12 Ba3"
_cell_length_a       5.7624797755746755
_cell_length_b       5.942235178906876
_cell_length_c       10.495636940002441
_cell_angle_alpha    95.88042648782938
_cell_angle_beta     90.16805932066752
_cell_angle_gamma    119.75159234196732

_space_group_name_H-M_alt    "P 1"
_space_group_IT_number       1

loop_
  _space_group_symop_operation_xyz
  'x, y, z'

loop_
  _atom_site_type_symbol
  _atom_site_label
  _atom_site_symmetry_multiplicity
  _atom_site_fract_x
  _atom_site_fract_y
  _atom_site_fract_z
  _atom_site_occupancy
  Ti  Ti1       1.0  0.3668755888938904  0.2906839847564697  0.6548007130622864  1.0000
  O   O1        1.0  0.679897665977478  0.2587670683860779  0.02313731610774994  1.0000
  Ba  Ba1       1.0  0.21660993993282326  0.9557049274444581  0.29377657175064087  1.0000
  Ti  Ti2       1.0  0.7848758101463318  0.04832639917731286  0.09054966270923615  1.0000
  Ti  Ti3       1.0  0.5747848153114319  0.6681195497512817  0.3725283741950989  1.0000
  O   O2        1.0  0.8774084448814392  0.8344612717628479  0.4945283830165863  1.0000
  O   O3        1.0  0.022108135744929314  0.2168882191181183  0.6974602937698364  1.0000
  Ba  Ba2       1.0  0.07661380618810654  0.6685106158256531  0.8720584511756897  1.0000
  Ti  Ti4       1.0  0.6804354786872864  0.9188374876976013  0.6395798921585083  1.0000
  O   O4        1.0  0.41371920704841614  0.35025838017463684  0.48225778341293335  1.0000
  O   O5        1.0  0.4765532910823822  0.08418148756027223  0.7208897471427917  1.0000
  O   O6        1.0  0.13017670810222626  0.1202732026576996  0.04752694070339203  1.0000
  O   O7        1.0  0.43125858902931213  0.8359065651893616  0.48879700899124146  1.0000
  O   O8        1.0  0.2723359763622284  0.501698911190033  0.25112637877464294  1.0000
  Ti  Ti5       1.0  0.47247791290283203  0.42026877403259283  0.10478335618972778  1.0000
  O   O9        1.0  0.5806712508201599  0.6315361261367798  0.7302663326263428  1.0000
  O   O10       1.0  0.7361649870872498  0.9867818951606752  0.2624131739139557  1.0000
  Ba  Ba3       1.0  0.9327166080474854  0.3811148703098297  0.45067909359931946  1.0000
  O   O11       1.0  0.7188436985015869  0.5009552836418152  0.25600895285606384  1.0000
  O   O12       1.0  0.5671322941780091  0.7083018422126771  0.014710987918078905  1.0000
