data_image389
_chemical_formula_structural       Ba3O3TiO
_chemical_formula_sum              "Ba3 O4 Ti1"
_cell_length_a       4.082522127903095
_cell_length_b       4.085373497939724
_cell_length_c       9.649495124816895
_cell_angle_alpha    90.01244027861222
_cell_angle_beta     90.01848499817584
_cell_angle_gamma    89.97544114401013

_space_group_name_H-M_alt    "P 1"
_space_group_IT_number       1

loop_
  _space_group_symop_operation_xyz
  'x, y, z'

loop_
  _atom_site_type_symbol
  _atom_site_label
  _atom_site_symmetry_multiplicity
  _atom_site_fract_x
  _atom_site_fract_y
  _atom_site_fract_z
  _atom_site_occupancy
  Ba  Ba1       1.0  0.44832146167755127  0.20578597486019135  0.974276900291443  1.0000
  Ba  Ba2       1.0  0.9488489627838135  0.7056660056114198  0.6661205291748047  1.0000
  Ba  Ba3       1.0  0.4487038552761078  0.2061501294374466  0.3586418628692627  1.0000
  O   O1        1.0  0.4485955238342285  0.7058953642845154  0.1668890416622162  1.0000
  O   O2        1.0  0.9485742449760437  0.20610035955905914  0.16671662032604218  1.0000
  O   O3        1.0  0.9487391114234924  0.7060907483100891  0.38039880990982056  1.0000
  Ti  Ti1       1.0  0.9485557079315186  0.7058351635932923  0.16681979596614838  1.0000
  O   O4        1.0  0.9484146237373352  0.705599844455719  0.9518318176269531  1.0000
