data_image950
_chemical_formula_structural       Ba2TiO3BaTiO4
_chemical_formula_sum              "Ba3 Ti2 O7"
_cell_length_a       4.074232519395325
_cell_length_b       4.073413001399708
_cell_length_c       11.110207557678223
_cell_angle_alpha    100.50626087408992
_cell_angle_beta     100.50033251044677
_cell_angle_gamma    89.82913178390767

_space_group_name_H-M_alt    "P 1"
_space_group_IT_number       1

loop_
  _space_group_symop_operation_xyz
  'x, y, z'

loop_
  _atom_site_type_symbol
  _atom_site_label
  _atom_site_symmetry_multiplicity
  _atom_site_fract_x
  _atom_site_fract_y
  _atom_site_fract_z
  _atom_site_occupancy
  Ba  Ba1       1.0  0.5415187478065491  0.7863085269927979  0.22839270532131195  1.0000
  Ba  Ba2       1.0  0.3530888557434082  0.5969722867012024  0.862112283706665  1.0000
  Ti  Ti1       1.0  0.9267355799674988  0.17169122397899628  0.038099758327007294  1.0000
  O   O1        1.0  0.04108862578868866  0.2855678796768188  0.22847943007946014  1.0000
  O   O2        1.0  0.4595390856266022  0.1944086253643036  0.039452604949474335  1.0000
  O   O3        1.0  0.8611527681350708  0.1049097180366516  0.8576875925064087  1.0000
  Ba  Ba3       1.0  0.7293871641159058  0.9742075800895691  0.5941331386566162  1.0000
  Ti  Ti2       1.0  0.1556786298751831  0.4008904695510864  0.4184718132019043  1.0000
  O   O4        1.0  0.13192035257816315  0.867097496986389  0.417654424905777  1.0000
  O   O5        1.0  0.9507960677146912  0.7038910984992981  0.03933126479387281  1.0000
  O   O6        1.0  0.22143608331680298  0.46548289060592646  0.5992081165313721  1.0000
  O   O7        1.0  0.6226232647895813  0.3754104971885681  0.4176342487335205  1.0000
