data_image1010
_chemical_formula_structural       BaTi2OTiO5BaO
_chemical_formula_sum              "Ba2 Ti3 O7"
_cell_length_a       3.871456071862903
_cell_length_b       4.834746372681352
_cell_length_c       9.640576362609863
_cell_angle_alpha    80.02369177978531
_cell_angle_beta     80.55148078419681
_cell_angle_gamma    85.78156861637576

_space_group_name_H-M_alt    "P 1"
_space_group_IT_number       1

loop_
  _space_group_symop_operation_xyz
  'x, y, z'

loop_
  _atom_site_type_symbol
  _atom_site_label
  _atom_site_symmetry_multiplicity
  _atom_site_fract_x
  _atom_site_fract_y
  _atom_site_fract_z
  _atom_site_occupancy
  Ba  Ba1       1.0  0.9525799751281737  0.3606195449829101  0.3929347097873688  1.0000
  Ti  Ti1       1.0  0.1950496286153793  0.6349791884422302  0.011893410235643387  1.0000
  Ti  Ti2       1.0  0.37417426705360407  0.7958801388740538  0.5958630442619324  1.0000
  O   O1        1.0  0.43386840820312494  0.7982963919639587  0.38538819551467896  1.0000
  Ti  Ti3       1.0  0.5067985057830809  0.9171931743621825  0.17846399545669558  1.0000
  O   O2        1.0  0.3672137260437011  0.17857742309570312  0.5982864499092102  1.0000
  O   O3        1.0  0.8641695976257323  0.7281875014305114  0.5948437452316284  1.0000
  O   O4        1.0  0.3487815856933593  0.2902949452400207  0.11561994254589081  1.0000
  O   O5        1.0  0.030191959813237187  0.8143056631088257  0.1836057603359222  1.0000
  O   O6        1.0  0.657909870147705  0.7685135006904601  0.9941834807395935  1.0000
  Ba  Ba2       1.0  0.7987449765205382  0.23957763612270355  0.7971273064613342  1.0000
  O   O7        1.0  0.2692565321922302  0.640288770198822  0.8057112693786621  1.0000
