data_image889
_chemical_formula_structural       BaO2Ti2OBaO4
_chemical_formula_sum              "Ba2 O7 Ti2"
_cell_length_a       3.9422625094075565
_cell_length_b       3.9422466146515065
_cell_length_c       11.18755054473877
_cell_angle_alpha    100.14816081546918
_cell_angle_beta     100.13839422913206
_cell_angle_gamma    90.03560135238621

_space_group_name_H-M_alt    "P 1"
_space_group_IT_number       1

loop_
  _space_group_symop_operation_xyz
  'x, y, z'

loop_
  _atom_site_type_symbol
  _atom_site_label
  _atom_site_symmetry_multiplicity
  _atom_site_fract_x
  _atom_site_fract_y
  _atom_site_fract_z
  _atom_site_occupancy
  Ba  Ba1       1.0  0.32203879952430725  0.36504113674163824  0.6519958972930908  1.0000
  O   O1        1.0  0.45576506853103643  0.4988664090633393  0.9201275706291198  1.0000
  O   O2        1.0  0.23484732210636142  0.7777782082557678  0.4773035645484924  1.0000
  Ti  Ti1       1.0  0.7263740897178651  0.769031584262848  0.4615102112293243  1.0000
  Ti  Ti2       1.0  0.5553405284881592  0.5991667509078981  0.12039861828088759  1.0000
  O   O3        1.0  0.7351188063621522  0.2776134312152863  0.47764632105827326  1.0000
  Ba  Ba2       1.0  0.9596641063690187  0.002771258354187012  0.9284232258796691  1.0000
  O   O4        1.0  0.8261776566505433  0.8688367605209352  0.6601844429969788  1.0000
  O   O5        1.0  0.047988802194595344  0.5906876921653748  0.10398949682712555  1.0000
  O   O6        1.0  0.5475546717643738  0.09117547422647478  0.1040632426738739  1.0000
  O   O7        1.0  0.6411110758781433  0.6840035915374757  0.2906185984611511  1.0000
