data_image892
_chemical_formula_structural       Ba2OTiO4
_chemical_formula_sum              "Ba2 O5 Ti1"
_cell_length_a       4.138842620539132
_cell_length_b       5.975677477962326
_cell_length_c       6.69272518157959
_cell_angle_alpha    116.39108122560826
_cell_angle_beta     107.71465064400589
_cell_angle_gamma    90.05409730596637

_space_group_name_H-M_alt    "P 1"
_space_group_IT_number       1

loop_
  _space_group_symop_operation_xyz
  'x, y, z'

loop_
  _atom_site_type_symbol
  _atom_site_label
  _atom_site_symmetry_multiplicity
  _atom_site_fract_x
  _atom_site_fract_y
  _atom_site_fract_z
  _atom_site_occupancy
  Ba  Ba1       1.0  0.29632303118705755  0.8975997567176818  0.7987856268882751  1.0000
  Ba  Ba2       1.0  0.6351571679115297  0.237665057182312  0.47682952880859375  1.0000
  O   O1        1.0  0.47925797104835516  0.5681791305541992  0.13812196254730225  1.0000
  Ti  Ti1       1.0  0.9219919443130494  0.5664016008377075  0.13679513335227966  1.0000
  O   O2        1.0  0.09416174888610844  0.9161736369132997  0.3906607329845429  1.0000
  O   O3        1.0  0.8411187529563905  0.21960300207138064  0.8865033388137817  1.0000
  O   O4        1.0  0.8400286436080934  0.664029061794281  0.8849818706512451  1.0000
  O   O5        1.0  0.09483411163091661  0.47117856144905096  0.3892657458782196  1.0000
