data_image978
_chemical_formula_structural       BaOBaTiO3TiO2
_chemical_formula_sum              "Ba2 O6 Ti2"
_cell_length_a       5.652692196078739
_cell_length_b       5.646888413883842
_cell_length_c       5.822083950042725
_cell_angle_alpha    118.99222336538628
_cell_angle_beta     119.06398055311374
_cell_angle_gamma    90.2050717003403

_space_group_name_H-M_alt    "P 1"
_space_group_IT_number       1

loop_
  _space_group_symop_operation_xyz
  'x, y, z'

loop_
  _atom_site_type_symbol
  _atom_site_label
  _atom_site_symmetry_multiplicity
  _atom_site_fract_x
  _atom_site_fract_y
  _atom_site_fract_z
  _atom_site_occupancy
  Ba  Ba1       1.0  0.5108960866928101  0.5222119092941284  0.05490460991859436  1.0000
  O   O1        1.0  0.5376732349395752  0.04854048416018486  0.1096768528223038  1.0000
  Ba  Ba2       1.0  0.01175785157829523  0.022437991574406624  0.055742453783750534  1.0000
  Ti  Ti1       1.0  0.7497579455375671  0.2605609595775605  0.5333791971206665  1.0000
  O   O2        1.0  0.527621865272522  0.5384677648544312  0.5889312028884888  1.0000
  O   O3        1.0  0.02726648561656475  0.03829672187566757  0.5895028710365295  1.0000
  O   O4        1.0  0.527607798576355  0.038871392607688904  0.5893496870994568  1.0000
  Ti  Ti2       1.0  0.24987737834453583  0.7609710693359375  0.533742368221283  1.0000
  O   O5        1.0  0.02795923873782158  0.5392595529556274  0.5899001955986023  1.0000
  O   O6        1.0  0.037442710250616074  0.5488250255584717  0.10968589037656784  1.0000
