data_image689
_chemical_formula_structural       TiBaOTiOBaO2
_chemical_formula_sum              "Ti2 Ba2 O4"
_cell_length_a       3.8150060548095004
_cell_length_b       5.944930382560626
_cell_length_c       6.065220355987549
_cell_angle_alpha    90.23808924086383
_cell_angle_beta     90.03598394130546
_cell_angle_gamma    89.9997292968972

_space_group_name_H-M_alt    "P 1"
_space_group_IT_number       1

loop_
  _space_group_symop_operation_xyz
  'x, y, z'

loop_
  _atom_site_type_symbol
  _atom_site_label
  _atom_site_symmetry_multiplicity
  _atom_site_fract_x
  _atom_site_fract_y
  _atom_site_fract_z
  _atom_site_occupancy
  Ti  Ti1       1.0  0.37715214490890503  0.726694345474243  0.23618336021900174  1.0000
  Ba  Ba1       1.0  0.8771005868911743  0.7267041206359863  0.7162491083145142  1.0000
  O   O1        1.0  0.8769844770431519  0.22729976475238797  0.728841245174408  1.0000
  Ti  Ti2       1.0  0.377444326877594  0.22698988020420074  0.6689090728759766  1.0000
  O   O2        1.0  0.37730759382247925  0.9775672554969788  0.45207190513610834  1.0000
  Ba  Ba2       1.0  0.876922070980072  0.2260153144598007  0.18993419408798218  1.0000
  O   O3        1.0  0.8770983815193176  0.7262741327285765  0.17634665966033936  1.0000
  O   O4        1.0  0.3772830069065094  0.47610738873481745  0.45208516716957087  1.0000
