data_image818
_chemical_formula_structural       OBa2TiOTiO2
_chemical_formula_sum              "O4 Ba2 Ti2"
_cell_length_a       5.374621947839906
_cell_length_b       5.385059274599831
_cell_length_c       6.310520648956299
_cell_angle_alpha    115.21154781743608
_cell_angle_beta     115.19341955838568
_cell_angle_gamma    89.95130350588873

_space_group_name_H-M_alt    "P 1"
_space_group_IT_number       1

loop_
  _space_group_symop_operation_xyz
  'x, y, z'

loop_
  _atom_site_type_symbol
  _atom_site_label
  _atom_site_symmetry_multiplicity
  _atom_site_fract_x
  _atom_site_fract_y
  _atom_site_fract_z
  _atom_site_occupancy
  O   O1        1.0  0.03841584920883179  0.6444911360740662  0.9263862371444702  1.0000
  Ba  Ba1       1.0  0.543118417263031  0.2694278061389923  0.6757058501243591  1.0000
  Ba  Ba2       1.0  0.7940958142280579  0.01948954164981842  0.17668212950229645  1.0000
  Ti  Ti1       1.0  0.04400405287742615  0.7695502638816833  0.6760647892951965  1.0000
  O   O2        1.0  0.6676018238067626  0.7751053571701049  0.4264256954193115  1.0000
  Ti  Ti2       1.0  0.2937820553779602  0.5206072926521301  0.17603655159473422  1.0000
  O   O3        1.0  0.2976371645927429  0.14401666820049286  0.9261163473129272  1.0000
  O   O4        1.0  0.16933120787143707  0.5152546167373657  0.4265204071998596  1.0000
