data_image365
_chemical_formula_structural       BaOTiOBaTiO2BaO3
_chemical_formula_sum              "Ba3 O7 Ti2"
_cell_length_a       3.9624099791115492
_cell_length_b       3.9622949000621843
_cell_length_c       12.51345157623291
_cell_angle_alpha    90.04144809237619
_cell_angle_beta     90.00314439146554
_cell_angle_gamma    90.01152503313618

_space_group_name_H-M_alt    "P 1"
_space_group_IT_number       1

loop_
  _space_group_symop_operation_xyz
  'x, y, z'

loop_
  _atom_site_type_symbol
  _atom_site_label
  _atom_site_symmetry_multiplicity
  _atom_site_fract_x
  _atom_site_fract_y
  _atom_site_fract_z
  _atom_site_occupancy
  Ba  Ba1       1.0  0.8578361868858339  0.699760913848877  0.7741720676422119  1.0000
  O   O1        1.0  0.3567275702953339  0.20022551715373993  0.44023242592811584  1.0000
  Ti  Ti1       1.0  0.8571290969848634  0.6991510987281798  0.0728645995259285  1.0000
  O   O2        1.0  0.8567835688591005  0.6992870569229126  0.22207540273666382  1.0000
  Ba  Ba2       1.0  0.856936812400818  0.7000638842582702  0.4566029906272888  1.0000
  Ti  Ti2       1.0  0.3576394617557526  0.20043219625949857  0.6146457195281982  1.0000
  O   O3        1.0  0.8566713929176332  0.19987046718597412  0.05811107158660889  1.0000
  O   O4        1.0  0.8575363159179689  0.19998489320278168  0.6108473539352417  1.0000
  Ba  Ba3       1.0  0.356237143278122  0.199638232588768  0.2175859659910202  1.0000
  O   O5        1.0  0.3575850725173951  0.6997867226600647  0.05793624371290207  1.0000
  O   O6        1.0  0.3571781516075135  0.19996412098407745  0.7659275531768799  1.0000
  O   O7        1.0  0.35737732052803045  0.6999929547309874  0.6110785007476807  1.0000
