data_image229
_chemical_formula_structural       TiBaO2
_chemical_formula_sum              "Ti1 Ba1 O2"
_cell_length_a       3.3114779714674905
_cell_length_b       3.3124262423344426
_cell_length_c       6.290886878967285
_cell_angle_alpha    74.75025765069572
_cell_angle_beta     74.75299132687357
_cell_angle_gamma    60.05138440188715

_space_group_name_H-M_alt    "P 1"
_space_group_IT_number       1

loop_
  _space_group_symop_operation_xyz
  'x, y, z'

loop_
  _atom_site_type_symbol
  _atom_site_label
  _atom_site_symmetry_multiplicity
  _atom_site_fract_x
  _atom_site_fract_y
  _atom_site_fract_z
  _atom_site_occupancy
  Ti  Ti1       1.0  0.8000888228416444  0.39125341176986694  0.44024658203125  1.0000
  Ba  Ba1       1.0  0.30083569884300226  0.8912178277969361  0.940317690372467  1.0000
  O   O1        1.0  0.07756251841783524  0.6678680181503296  0.6097500920295715  1.0000
  O   O2        1.0  0.5235851407051086  0.11450447142124177  0.27069854736328125  1.0000
