data_image597
_chemical_formula_structural       OBaTiO
_chemical_formula_sum              "O2 Ba1 Ti1"
_cell_length_a       3.3055985058931463
_cell_length_b       3.3068790330266085
_cell_length_c       6.295144081115723
_cell_angle_alpha    74.79886917235315
_cell_angle_beta     74.81593121793443
_cell_angle_gamma    60.046748357922525

_space_group_name_H-M_alt    "P 1"
_space_group_IT_number       1

loop_
  _space_group_symop_operation_xyz
  'x, y, z'

loop_
  _atom_site_type_symbol
  _atom_site_label
  _atom_site_symmetry_multiplicity
  _atom_site_fract_x
  _atom_site_fract_y
  _atom_site_fract_z
  _atom_site_occupancy
  O   O1        1.0  0.8792622089385986  0.27476364374160767  0.15811747312545776  1.0000
  Ba  Ba1       1.0  0.10159381479024887  0.4963969886302948  0.4914828538894653  1.0000
  Ti  Ti1       1.0  0.6024525761604308  0.9957745671272278  0.9925039410591124  1.0000
  O   O2        1.0  0.3239646255970002  0.71821129322052  0.8255428671836852  1.0000
