data_image298
_chemical_formula_structural       OBaTiO
_chemical_formula_sum              "O2 Ba1 Ti1"
_cell_length_a       3.3103246405234037
_cell_length_b       3.316406846266961
_cell_length_c       6.320096015930176
_cell_angle_alpha    74.83223458651113
_cell_angle_beta     74.84501376192293
_cell_angle_gamma    60.03605009334206

_space_group_name_H-M_alt    "P 1"
_space_group_IT_number       1

loop_
  _space_group_symop_operation_xyz
  'x, y, z'

loop_
  _atom_site_type_symbol
  _atom_site_label
  _atom_site_symmetry_multiplicity
  _atom_site_fract_x
  _atom_site_fract_y
  _atom_site_fract_z
  _atom_site_occupancy
  O   O1        1.0  0.32730308175086975  0.6041462421417236  0.4692407548427582  1.0000
  Ba  Ba1       1.0  0.5502883195877075  0.8268650770187378  0.801059365272522  1.0000
  Ti  Ti1       1.0  0.04996311292052269  0.32719936966896057  0.30097633600234985  1.0000
  O   O2        1.0  0.7736883759498596  0.04966996610164642  0.1327001005411148  1.0000
