data_image1032
_chemical_formula_structural       BaO2BaOBaO2TiBaOTiO4
_chemical_formula_sum              "Ba4 O10 Ti2"
_cell_length_a       5.632172727024036
_cell_length_b       5.643598293081652
_cell_length_c       8.418079376220703
_cell_angle_alpha    108.41925823144328
_cell_angle_beta     89.36416656067496
_cell_angle_gamma    90.28203464923088

_space_group_name_H-M_alt    "P 1"
_space_group_IT_number       1

loop_
  _space_group_symop_operation_xyz
  'x, y, z'

loop_
  _atom_site_type_symbol
  _atom_site_label
  _atom_site_symmetry_multiplicity
  _atom_site_fract_x
  _atom_site_fract_y
  _atom_site_fract_z
  _atom_site_occupancy
  Ba  Ba1       1.0  0.8871484994888306  0.17292501032352448  0.7994641661643982  1.0000
  O   O1        1.0  0.37771445512771606  0.15804308652877808  0.7959243655204773  1.0000
  O   O2        1.0  0.9545034766197205  0.8234059810638427  0.9642840623855591  1.0000
  Ba  Ba2       1.0  0.40790432691574097  0.4391696155071258  0.2856457531452179  1.0000
  O   O3        1.0  0.9072496294975281  0.44210273027420044  0.29267340898513794  1.0000
  Ba  Ba3       1.0  0.38901352882385254  0.6720605492591858  0.7996470928192139  1.0000
  O   O4        1.0  0.14994652569293976  0.3078397214412689  0.5440709590911865  1.0000
  O   O5        1.0  0.1500609964132309  0.8083699941635132  0.5451392531394958  1.0000
  Ti  Ti1       1.0  0.4023435115814209  0.05076061189174652  0.5241681337356567  1.0000
  Ba  Ba4       1.0  0.9080729484558105  0.9382968544960022  0.28662511706352234  1.0000
  O   O6        1.0  0.45484042167663574  0.3228628933429718  0.9627403020858765  1.0000
  Ti  Ti2       1.0  0.9027143716812134  0.5502002835273743  0.523333728313446  1.0000
  O   O7        1.0  0.8846116662025452  0.6613985896110535  0.7978793382644653  1.0000
  O   O8        1.0  0.6501224637031555  0.31000983715057373  0.5484418272972107  1.0000
  O   O9        1.0  0.6507764458656311  0.8076483607292175  0.5447584390640259  1.0000
  O   O10       1.0  0.40817323327064514  0.9430670738220216  0.29388001561164856  1.0000
