data_image884
_chemical_formula_structural       TiO2BaOBaTiO3
_chemical_formula_sum              "Ti2 O6 Ba2"
_cell_length_a       5.663948795358498
_cell_length_b       5.6649583910523
_cell_length_c       5.823725700378418
_cell_angle_alpha    118.95707612198755
_cell_angle_beta     119.08392450169208
_cell_angle_gamma    89.95799075178216

_space_group_name_H-M_alt    "P 1"
_space_group_IT_number       1

loop_
  _space_group_symop_operation_xyz
  'x, y, z'

loop_
  _atom_site_type_symbol
  _atom_site_label
  _atom_site_symmetry_multiplicity
  _atom_site_fract_x
  _atom_site_fract_y
  _atom_site_fract_z
  _atom_site_occupancy
  Ti  Ti1       1.0  0.33568671345710754  0.8080936670303344  0.11931207776069634  1.0000
  O   O1        1.0  0.11263594776391983  0.08697549998760222  0.1707932949066162  1.0000
  O   O2        1.0  0.1230362355709076  0.5948532819747925  0.6907964944839478  1.0000
  Ba  Ba1       1.0  0.5974583625793457  0.5691350102424622  0.6401471495628357  1.0000
  O   O3        1.0  0.614017903804779  0.08695490658283234  0.17104969918727875  1.0000
  Ba  Ba2       1.0  0.09735548496246338  0.06935560703277588  0.6400049328804016  1.0000
  Ti  Ti2       1.0  0.8354068398475647  0.30659446120262146  0.11852815747261047  1.0000
  O   O4        1.0  0.11590125411748887  0.5876599550247192  0.17139688134193418  1.0000
  O   O5        1.0  0.6159880757331848  0.585100531578064  0.17042222619056702  1.0000
  O   O6        1.0  0.6214893460273743  0.09375698864459991  0.6883766651153564  1.0000
