data_image990
_chemical_formula_structural       BaTiO2
_chemical_formula_sum              "Ba1 Ti1 O2"
_cell_length_a       3.2985871326331986
_cell_length_b       3.3002089389416747
_cell_length_c       6.331234931945801
_cell_angle_alpha    74.97045561911457
_cell_angle_beta     74.9536269924717
_cell_angle_gamma    60.16694605210609

_space_group_name_H-M_alt    "P 1"
_space_group_IT_number       1

loop_
  _space_group_symop_operation_xyz
  'x, y, z'

loop_
  _atom_site_type_symbol
  _atom_site_label
  _atom_site_symmetry_multiplicity
  _atom_site_fract_x
  _atom_site_fract_y
  _atom_site_fract_z
  _atom_site_occupancy
  Ba  Ba1       1.0  0.5891764760017395  0.5266498923301697  0.4547150731086731  1.0000
  Ti  Ti1       1.0  0.08916901051998138  0.02672061696648598  0.9544225335121155  1.0000
  O   O1        1.0  0.3674981892108917  0.3050169348716736  0.12061373889446257  1.0000
  O   O2        1.0  0.8108822703361511  0.748465359210968  0.7886890769004822  1.0000
