data_image1035
_chemical_formula_structural       O3BaOBa2OBaO2Ti2O
_chemical_formula_sum              "O8 Ba4 Ti2"
_cell_length_a       6.185544202346481
_cell_length_b       6.230491666278618
_cell_length_c       7.543889999389648
_cell_angle_alpha    89.99455884401215
_cell_angle_beta     109.69390314131496
_cell_angle_gamma    89.95173355815602

_space_group_name_H-M_alt    "P 1"
_space_group_IT_number       1

loop_
  _space_group_symop_operation_xyz
  'x, y, z'

loop_
  _atom_site_type_symbol
  _atom_site_label
  _atom_site_symmetry_multiplicity
  _atom_site_fract_x
  _atom_site_fract_y
  _atom_site_fract_z
  _atom_site_occupancy
  O   O1        1.0  0.4049254655838012  0.6280538439750671  0.7716158032417297  1.0000
  O   O2        1.0  0.7586312294006347  0.3991071581840515  0.08264162391424179  1.0000
  O   O3        1.0  0.8731999993324279  0.8987352252006531  0.5641685128211975  1.0000
  Ba  Ba1       1.0  0.6336319446563721  0.12918318808078766  0.7990166544914246  1.0000
  O   O4        1.0  0.2271962761878967  0.12856686115264893  0.8751798868179321  1.0000
  Ba  Ba2       1.0  0.5298448801040649  0.1287316232919693  0.2596223354339599  1.0000
  Ba  Ba3       1.0  0.9987046718597411  0.6280569434165955  0.847715437412262  1.0000
  O   O5        1.0  0.26956236362457275  0.12828566133975983  0.48454704880714417  1.0000
  Ba  Ba4       1.0  0.10338898748159407  0.6276841759681702  0.386981338262558  1.0000
  O   O6        1.0  0.3627727627754211  0.6284129023551941  0.16210120916366577  1.0000
  O   O7        1.0  0.7592090964317321  0.8579723238945006  0.08230783045291903  1.0000
  Ti  Ti1       1.0  0.5629453659057617  0.6285077333450317  0.02647395059466362  1.0000
  Ti  Ti2       1.0  0.06965252757072449  0.12774789333343506  0.6201379299163818  1.0000
  O   O8        1.0  0.8742229938507079  0.3576373159885406  0.5643466114997864  1.0000
